<?xml version='1.0' encoding='utf-8'?>
<routes>
  <vType id="HDV_0" color="127,255,0" length="3.5" carFollowModel="Krauss" accel="2.6" decel="4.5" tau="1.0" minGap="2.0" lcStrategic="-1" sigma="0.5" speedFactor="normc(1,0.1,0.2,2)" />
  <vType id="HDV_1" color="255,0,255" length="3.5" carFollowModel="W99" accel="2.6" decel="4.5" tau="2.0" minGap="2.0" lcStrategic="0" cc1="1.5" speedFactor="normc(1,0.1,0.2,2)" />
  <vType id="HDV_2" color="30,144,255" length="7.0" carFollowModel="W99" accel="1.5" decel="3.5" tau="1.5" minGap="3.0" lcStrategic="-1" speedFactor="normc(1,0.1,0.2,2)" />
  <vType id="CAV" color="255,0,0" length="3.5" carFollowModel="IDM" accel="3.0" decel="5.5" tau="1.0" minGap="1.4" lcStrategic="0" />
  <route id="main" edges="E1 E4 E6" />
  <route id="ramp" edges="E2 E3 E4 E6" />
  <flow id="main_hdv_0_0" type="HDV_0" route="main" vehsPerHour="816" begin="0" end="600" departLane="random" departSpeed="speedLimit" departPos="base" />
  <flow id="ramp_hdv_0_0" type="HDV_0" route="ramp" vehsPerHour="427" begin="0" end="600" departLane="random" departSpeed="speedLimit" departPos="free" />
  <flow id="main_hdv_0_1" type="HDV_1" route="main" vehsPerHour="816" begin="0" end="600" departLane="random" departSpeed="speedLimit" departPos="base" />
  <flow id="ramp_hdv_0_1" type="HDV_1" route="ramp" vehsPerHour="427" begin="0" end="600" departLane="random" departSpeed="speedLimit" departPos="free" />
  <flow id="main_hdv_0_2" type="HDV_2" route="main" vehsPerHour="408" begin="0" end="600" departLane="random" departSpeed="speedLimit" departPos="base" />
  <flow id="ramp_hdv_0_2" type="HDV_2" route="ramp" vehsPerHour="213" begin="0" end="600" departLane="random" departSpeed="speedLimit" departPos="free" />
  <vehicle id="CAV.1" type="CAV" route="main" depart="540.9" departLane="random" departPos="base" departSpeed="speedLimit" />
  <vehicle id="CAV.2" type="CAV" route="main" depart="255.8" departLane="random" departPos="base" departSpeed="speedLimit" />
  <vehicle id="CAV.3" type="CAV" route="main" depart="557.2" departLane="random" departPos="base" departSpeed="speedLimit" />
  <vehicle id="CAV.4" type="CAV" route="main" depart="176.4" departLane="random" departPos="base" departSpeed="speedLimit" />
  <vehicle id="CAV.5" type="CAV" route="main" depart="491.5" departLane="random" departPos="base" departSpeed="speedLimit" />
  <vehicle id="CAV.6" type="CAV" route="main" depart="369.0" departLane="random" departPos="base" departSpeed="speedLimit" />
  <vehicle id="CAV.7" type="CAV" route="main" depart="302.0" departLane="random" departPos="base" departSpeed="speedLimit" />
  <vehicle id="CAV.8" type="CAV" route="main" depart="467.6" departLane="random" departPos="base" departSpeed="speedLimit" />
  <vehicle id="CAV.9" type="CAV" route="main" depart="286.3" departLane="random" departPos="base" departSpeed="speedLimit" />
  <vehicle id="CAV.10" type="CAV" route="main" depart="509.2" departLane="random" departPos="base" departSpeed="speedLimit" />
  <vehicle id="CAV.11" type="CAV" route="main" depart="410.0" departLane="random" departPos="base" departSpeed="speedLimit" />
  <vehicle id="CAV.12" type="CAV" route="main" depart="347.1" departLane="random" departPos="base" departSpeed="speedLimit" />
  <vehicle id="CAV.13" type="CAV" route="main" depart="291.2" departLane="random" departPos="base" departSpeed="speedLimit" />
  <vehicle id="CAV.14" type="CAV" route="main" depart="366.0" departLane="random" departPos="base" departSpeed="speedLimit" />
  <vehicle id="CAV.15" type="CAV" route="main" depart="528.7" departLane="random" departPos="base" departSpeed="speedLimit" />
  <vehicle id="CAV.16" type="CAV" route="main" depart="43.7" departLane="random" departPos="base" departSpeed="speedLimit" />
  <vehicle id="CAV.17" type="CAV" route="main" depart="142.7" departLane="random" departPos="base" departSpeed="speedLimit" />
  <vehicle id="CAV.18" type="CAV" route="main" depart="572.6" departLane="random" departPos="base" departSpeed="speedLimit" />
  <vehicle id="CAV.19" type="CAV" route="main" depart="386.7" departLane="random" departPos="base" departSpeed="speedLimit" />
  <vehicle id="CAV.20" type="CAV" route="main" depart="294.2" departLane="random" departPos="base" departSpeed="speedLimit" />
  <vehicle id="CAV.21" type="CAV" route="main" depart="548.4" departLane="random" departPos="base" departSpeed="speedLimit" />
  <vehicle id="CAV.22" type="CAV" route="main" depart="15.9" departLane="random" departPos="base" departSpeed="speedLimit" />
  <vehicle id="CAV.23" type="CAV" route="main" depart="569.6" departLane="random" departPos="base" departSpeed="speedLimit" />
  <vehicle id="CAV.24" type="CAV" route="main" depart="440.4" departLane="random" departPos="base" departSpeed="speedLimit" />
  <vehicle id="CAV.25" type="CAV" route="main" depart="390.5" departLane="random" departPos="base" departSpeed="speedLimit" />
  <vehicle id="CAV.26" type="CAV" route="main" depart="503.3" departLane="random" departPos="base" departSpeed="speedLimit" />
  <vehicle id="CAV.27" type="CAV" route="main" depart="479.7" departLane="random" departPos="base" departSpeed="speedLimit" />
  <vehicle id="CAV.28" type="CAV" route="main" depart="186.2" departLane="random" departPos="base" departSpeed="speedLimit" />
  <vehicle id="CAV.29" type="CAV" route="main" depart="63.6" departLane="random" departPos="base" departSpeed="speedLimit" />
  <vehicle id="CAV.30" type="CAV" route="main" depart="417.0" departLane="random" departPos="base" departSpeed="speedLimit" />
  <vehicle id="CAV.31" type="CAV" route="main" depart="409.4" departLane="random" departPos="base" departSpeed="speedLimit" />
  <vehicle id="CAV.32" type="CAV" route="main" depart="433.0" departLane="random" departPos="base" departSpeed="speedLimit" />
  <vehicle id="CAV.33" type="CAV" route="main" depart="156.7" departLane="random" departPos="base" departSpeed="speedLimit" />
  <vehicle id="CAV.34" type="CAV" route="main" depart="477.2" departLane="random" departPos="base" departSpeed="speedLimit" />
  <vehicle id="CAV.35" type="CAV" route="main" depart="393.0" departLane="random" departPos="base" departSpeed="speedLimit" />
  <vehicle id="CAV.36" type="CAV" route="main" depart="71.6" departLane="random" departPos="base" departSpeed="speedLimit" />
  <vehicle id="CAV.37" type="CAV" route="main" depart="290.9" departLane="random" departPos="base" departSpeed="speedLimit" />
  <vehicle id="CAV.38" type="CAV" route="main" depart="302.5" departLane="random" departPos="base" departSpeed="speedLimit" />
  <vehicle id="CAV.39" type="CAV" route="main" depart="3.5" departLane="random" departPos="base" departSpeed="speedLimit" />
  <vehicle id="CAV.40" type="CAV" route="main" depart="7.3" departLane="random" departPos="base" departSpeed="speedLimit" />
  <vehicle id="CAV.41" type="CAV" route="main" depart="437.4" departLane="random" departPos="base" departSpeed="speedLimit" />
  <vehicle id="CAV.42" type="CAV" route="main" depart="95.0" departLane="random" departPos="base" departSpeed="speedLimit" />
  <vehicle id="CAV.43" type="CAV" route="main" depart="338.0" departLane="random" departPos="base" departSpeed="speedLimit" />
  <vehicle id="CAV.44" type="CAV" route="main" depart="426.5" departLane="random" departPos="base" departSpeed="speedLimit" />
  <vehicle id="CAV.45" type="CAV" route="main" depart="419.3" departLane="random" departPos="base" departSpeed="speedLimit" />
  <vehicle id="CAV.46" type="CAV" route="main" depart="326.7" departLane="random" departPos="base" departSpeed="speedLimit" />
  <vehicle id="CAV.47" type="CAV" route="main" depart="460.4" departLane="random" departPos="base" departSpeed="speedLimit" />
  <vehicle id="CAV.48" type="CAV" route="main" depart="464.7" departLane="random" departPos="base" departSpeed="speedLimit" />
  <vehicle id="CAV.49" type="CAV" route="main" depart="514.2" departLane="random" departPos="base" departSpeed="speedLimit" />
  <vehicle id="CAV.50" type="CAV" route="main" depart="554.2" departLane="random" departPos="base" departSpeed="speedLimit" />
  <vehicle id="CAV.51" type="CAV" route="main" depart="576.8" departLane="random" departPos="base" departSpeed="speedLimit" />
  <vehicle id="CAV.52" type="CAV" route="main" depart="230.5" departLane="random" departPos="base" departSpeed="speedLimit" />
  <vehicle id="CAV.53" type="CAV" route="main" depart="280.0" departLane="random" departPos="base" departSpeed="speedLimit" />
  <vehicle id="CAV.54" type="CAV" route="main" depart="582.8" departLane="random" departPos="base" departSpeed="speedLimit" />
  <vehicle id="CAV.55" type="CAV" route="main" depart="144.8" departLane="random" departPos="base" departSpeed="speedLimit" />
  <vehicle id="CAV.56" type="CAV" route="main" depart="494.9" departLane="random" departPos="base" departSpeed="speedLimit" />
  <vehicle id="CAV.57" type="CAV" route="main" depart="231.1" departLane="random" departPos="base" departSpeed="speedLimit" />
  <vehicle id="CAV.58" type="CAV" route="main" depart="415.9" departLane="random" departPos="base" departSpeed="speedLimit" />
  <vehicle id="CAV.59" type="CAV" route="main" depart="237.8" departLane="random" departPos="base" departSpeed="speedLimit" />
  <vehicle id="CAV.60" type="CAV" route="main" depart="364.6" departLane="random" departPos="base" departSpeed="speedLimit" />
  <vehicle id="CAV.61" type="CAV" route="main" depart="410.4" departLane="random" departPos="base" departSpeed="speedLimit" />
  <vehicle id="CAV.62" type="CAV" route="main" depart="544.6" departLane="random" departPos="base" departSpeed="speedLimit" />
  <vehicle id="CAV.63" type="CAV" route="main" depart="126.8" departLane="random" departPos="base" departSpeed="speedLimit" />
  <vehicle id="CAV.64" type="CAV" route="main" depart="312.1" departLane="random" departPos="base" departSpeed="speedLimit" />
  <vehicle id="CAV.65" type="CAV" route="main" depart="481.2" departLane="random" departPos="base" departSpeed="speedLimit" />
  <vehicle id="CAV.66" type="CAV" route="main" depart="113.4" departLane="random" departPos="base" departSpeed="speedLimit" />
  <vehicle id="CAV.67" type="CAV" route="main" depart="400.0" departLane="random" departPos="base" departSpeed="speedLimit" />
  <vehicle id="CAV.68" type="CAV" route="main" depart="267.2" departLane="random" departPos="base" departSpeed="speedLimit" />
  <vehicle id="CAV.69" type="CAV" route="main" depart="109.6" departLane="random" departPos="base" departSpeed="speedLimit" />
  <vehicle id="CAV.70" type="CAV" route="main" depart="8.5" departLane="random" departPos="base" departSpeed="speedLimit" />
  <vehicle id="CAV.71" type="CAV" route="main" depart="393.0" departLane="random" departPos="base" departSpeed="speedLimit" />
  <vehicle id="CAV.72" type="CAV" route="main" depart="249.4" departLane="random" departPos="base" departSpeed="speedLimit" />
  <vehicle id="CAV.73" type="CAV" route="main" depart="120.7" departLane="random" departPos="base" departSpeed="speedLimit" />
  <vehicle id="CAV.74" type="CAV" route="main" depart="128.6" departLane="random" departPos="base" departSpeed="speedLimit" />
  <vehicle id="CAV.75" type="CAV" route="main" depart="264.8" departLane="random" departPos="base" departSpeed="speedLimit" />
  <vehicle id="CAV.76" type="CAV" route="main" depart="543.8" departLane="random" departPos="base" departSpeed="speedLimit" />
  <vehicle id="CAV.77" type="CAV" route="main" depart="105.0" departLane="random" departPos="base" departSpeed="speedLimit" />
  <vehicle id="CAV.78" type="CAV" route="main" depart="294.9" departLane="random" departPos="base" departSpeed="speedLimit" />
  <vehicle id="CAV.79" type="CAV" route="main" depart="262.8" departLane="random" departPos="base" departSpeed="speedLimit" />
  <vehicle id="CAV.80" type="CAV" route="main" depart="128.5" departLane="random" departPos="base" departSpeed="speedLimit" />
  <vehicle id="CAV.81" type="CAV" route="main" depart="498.3" departLane="random" departPos="base" departSpeed="speedLimit" />
  <vehicle id="CAV.82" type="CAV" route="main" depart="465.4" departLane="random" departPos="base" departSpeed="speedLimit" />
  <vehicle id="CAV.83" type="CAV" route="main" depart="225.6" departLane="random" departPos="base" departSpeed="speedLimit" />
  <vehicle id="CAV.84" type="CAV" route="main" depart="166.8" departLane="random" departPos="base" departSpeed="speedLimit" />
  <vehicle id="CAV.85" type="CAV" route="main" depart="85.2" departLane="random" departPos="base" departSpeed="speedLimit" />
  <vehicle id="CAV.86" type="CAV" route="main" depart="164.3" departLane="random" departPos="base" departSpeed="speedLimit" />
  <vehicle id="CAV.87" type="CAV" route="main" depart="158.3" departLane="random" departPos="base" departSpeed="speedLimit" />
  <vehicle id="CAV.88" type="CAV" route="main" depart="577.2" departLane="random" departPos="base" departSpeed="speedLimit" />
  <vehicle id="CAV.89" type="CAV" route="main" depart="359.8" departLane="random" departPos="base" departSpeed="speedLimit" />
  <vehicle id="CAV.90" type="CAV" route="main" depart="25.9" departLane="random" departPos="base" departSpeed="speedLimit" />
  <vehicle id="CAV.91" type="CAV" route="main" depart="22.5" departLane="random" departPos="base" departSpeed="speedLimit" />
  <vehicle id="CAV.92" type="CAV" route="main" depart="276.3" departLane="random" departPos="base" departSpeed="speedLimit" />
  <vehicle id="CAV.93" type="CAV" route="main" depart="552.4" departLane="random" departPos="base" departSpeed="speedLimit" />
  <vehicle id="CAV.94" type="CAV" route="main" depart="456.9" departLane="random" departPos="base" departSpeed="speedLimit" />
  <vehicle id="CAV.95" type="CAV" route="main" depart="98.8" departLane="random" departPos="base" departSpeed="speedLimit" />
  <vehicle id="CAV.96" type="CAV" route="main" depart="243.9" departLane="random" departPos="base" departSpeed="speedLimit" />
  <vehicle id="CAV.97" type="CAV" route="main" depart="444.6" departLane="random" departPos="base" departSpeed="speedLimit" />
  <vehicle id="CAV.98" type="CAV" route="main" depart="552.0" departLane="random" departPos="base" departSpeed="speedLimit" />
  <vehicle id="CAV.99" type="CAV" route="main" depart="325.3" departLane="random" departPos="base" departSpeed="speedLimit" />
  <vehicle id="CAV.100" type="CAV" route="main" depart="307.3" departLane="random" departPos="base" departSpeed="speedLimit" />
  <vehicle id="CAV.101" type="CAV" route="main" depart="392.2" departLane="random" departPos="base" departSpeed="speedLimit" />
  <vehicle id="CAV.102" type="CAV" route="main" depart="110.2" departLane="random" departPos="base" departSpeed="speedLimit" />
  <vehicle id="CAV.103" type="CAV" route="main" depart="583.9" departLane="random" departPos="base" departSpeed="speedLimit" />
  <vehicle id="CAV.104" type="CAV" route="main" depart="186.0" departLane="random" departPos="base" departSpeed="speedLimit" />
  <vehicle id="CAV.105" type="CAV" route="main" depart="15.4" departLane="random" departPos="base" departSpeed="speedLimit" />
  <vehicle id="CAV.106" type="CAV" route="main" depart="12.1" departLane="random" departPos="base" departSpeed="speedLimit" />
  <vehicle id="CAV.107" type="CAV" route="main" depart="562.8" departLane="random" departPos="base" departSpeed="speedLimit" />
  <vehicle id="CAV.108" type="CAV" route="main" depart="582.9" departLane="random" departPos="base" departSpeed="speedLimit" />
  <vehicle id="CAV.109" type="CAV" route="main" depart="101.7" departLane="random" departPos="base" departSpeed="speedLimit" />
  <vehicle id="CAV.110" type="CAV" route="main" depart="362.2" departLane="random" departPos="base" departSpeed="speedLimit" />
  <vehicle id="CAV.111" type="CAV" route="main" depart="154.7" departLane="random" departPos="base" departSpeed="speedLimit" />
  <vehicle id="CAV.112" type="CAV" route="main" depart="573.9" departLane="random" departPos="base" departSpeed="speedLimit" />
  <vehicle id="CAV.113" type="CAV" route="main" depart="385.0" departLane="random" departPos="base" departSpeed="speedLimit" />
  <vehicle id="CAV.114" type="CAV" route="main" depart="130.9" departLane="random" departPos="base" departSpeed="speedLimit" />
  <vehicle id="CAV.115" type="CAV" route="main" depart="376.0" departLane="random" departPos="base" departSpeed="speedLimit" />
  <vehicle id="CAV.116" type="CAV" route="main" depart="505.9" departLane="random" departPos="base" departSpeed="speedLimit" />
  <vehicle id="CAV.117" type="CAV" route="main" depart="553.9" departLane="random" departPos="base" departSpeed="speedLimit" />
  <vehicle id="CAV.118" type="CAV" route="main" depart="195.4" departLane="random" departPos="base" departSpeed="speedLimit" />
  <vehicle id="CAV.119" type="CAV" route="main" depart="498.2" departLane="random" departPos="base" departSpeed="speedLimit" />
  <vehicle id="CAV.120" type="CAV" route="main" depart="157.3" departLane="random" departPos="base" departSpeed="speedLimit" />
  <vehicle id="CAV.121" type="CAV" route="main" depart="62.2" departLane="random" departPos="base" departSpeed="speedLimit" />
  <vehicle id="CAV.122" type="CAV" route="main" depart="520.9" departLane="random" departPos="base" departSpeed="speedLimit" />
  <vehicle id="CAV.123" type="CAV" route="main" depart="215.7" departLane="random" departPos="base" departSpeed="speedLimit" />
  <vehicle id="CAV.124" type="CAV" route="main" depart="373.9" departLane="random" departPos="base" departSpeed="speedLimit" />
  <vehicle id="CAV.125" type="CAV" route="main" depart="364.0" departLane="random" departPos="base" departSpeed="speedLimit" />
  <vehicle id="CAV.126" type="CAV" route="main" depart="119.5" departLane="random" departPos="base" departSpeed="speedLimit" />
  <vehicle id="CAV.127" type="CAV" route="main" depart="284.4" departLane="random" departPos="base" departSpeed="speedLimit" />
  <vehicle id="CAV.128" type="CAV" route="main" depart="495.8" departLane="random" departPos="base" departSpeed="speedLimit" />
  <vehicle id="CAV.129" type="CAV" route="main" depart="519.0" departLane="random" departPos="base" departSpeed="speedLimit" />
  <vehicle id="CAV.130" type="CAV" route="main" depart="353.3" departLane="random" departPos="base" departSpeed="speedLimit" />
  <vehicle id="CAV.131" type="CAV" route="main" depart="434.1" departLane="random" departPos="base" departSpeed="speedLimit" />
  <vehicle id="CAV.132" type="CAV" route="main" depart="463.8" departLane="random" departPos="base" departSpeed="speedLimit" />
  <vehicle id="CAV.133" type="CAV" route="main" depart="85.9" departLane="random" departPos="base" departSpeed="speedLimit" />
  <vehicle id="CAV.134" type="CAV" route="main" depart="357.4" departLane="random" departPos="base" departSpeed="speedLimit" />
  <vehicle id="CAV.135" type="CAV" route="main" depart="379.1" departLane="random" departPos="base" departSpeed="speedLimit" />
  <vehicle id="CAV.136" type="CAV" route="main" depart="190.0" departLane="random" departPos="base" departSpeed="speedLimit" />
  <vehicle id="CAV.137" type="CAV" route="main" depart="160.5" departLane="random" departPos="base" departSpeed="speedLimit" />
  <vehicle id="CAV.138" type="CAV" route="main" depart="94.7" departLane="random" departPos="base" departSpeed="speedLimit" />
  <vehicle id="CAV.139" type="CAV" route="main" depart="188.1" departLane="random" departPos="base" departSpeed="speedLimit" />
  <vehicle id="CAV.140" type="CAV" route="main" depart="254.6" departLane="random" departPos="base" departSpeed="speedLimit" />
  <vehicle id="CAV.141" type="CAV" route="main" depart="99.5" departLane="random" departPos="base" departSpeed="speedLimit" />
  <vehicle id="CAV.142" type="CAV" route="main" depart="506.2" departLane="random" departPos="base" departSpeed="speedLimit" />
  <vehicle id="CAV.143" type="CAV" route="main" depart="165.1" departLane="random" departPos="base" departSpeed="speedLimit" />
  <vehicle id="CAV.144" type="CAV" route="main" depart="379.9" departLane="random" departPos="base" departSpeed="speedLimit" />
  <vehicle id="CAV.145" type="CAV" route="main" depart="129.1" departLane="random" departPos="base" departSpeed="speedLimit" />
  <vehicle id="CAV.146" type="CAV" route="main" depart="400.5" departLane="random" departPos="base" departSpeed="speedLimit" />
  <vehicle id="CAV.147" type="CAV" route="main" depart="398.9" departLane="random" departPos="base" departSpeed="speedLimit" />
  <vehicle id="CAV.148" type="CAV" route="main" depart="302.0" departLane="random" departPos="base" departSpeed="speedLimit" />
  <vehicle id="CAV.149" type="CAV" route="main" depart="122.5" departLane="random" departPos="base" departSpeed="speedLimit" />
  <vehicle id="CAV.150" type="CAV" route="main" depart="111.5" departLane="random" departPos="base" departSpeed="speedLimit" />
  <vehicle id="CAV.151" type="CAV" route="main" depart="542.9" departLane="random" departPos="base" departSpeed="speedLimit" />
  <vehicle id="CAV.152" type="CAV" route="main" depart="516.5" departLane="random" departPos="base" departSpeed="speedLimit" />
  <vehicle id="CAV.153" type="CAV" route="main" depart="98.3" departLane="random" departPos="base" departSpeed="speedLimit" />
  <vehicle id="CAV.154" type="CAV" route="main" depart="434.0" departLane="random" departPos="base" departSpeed="speedLimit" />
  <vehicle id="CAV.155" type="CAV" route="main" depart="357.1" departLane="random" departPos="base" departSpeed="speedLimit" />
  <vehicle id="CAV.156" type="CAV" route="main" depart="224.3" departLane="random" departPos="base" departSpeed="speedLimit" />
  <vehicle id="CAV.157" type="CAV" route="main" depart="546.0" departLane="random" departPos="base" departSpeed="speedLimit" />
  <vehicle id="CAV.158" type="CAV" route="main" depart="15.9" departLane="random" departPos="base" departSpeed="speedLimit" />
  <vehicle id="CAV.159" type="CAV" route="main" depart="560.6" departLane="random" departPos="base" departSpeed="speedLimit" />
  <vehicle id="CAV.160" type="CAV" route="main" depart="250.6" departLane="random" departPos="base" departSpeed="speedLimit" />
  <vehicle id="CAV.161" type="CAV" route="main" depart="267.3" departLane="random" departPos="base" departSpeed="speedLimit" />
  <vehicle id="CAV.162" type="CAV" route="main" depart="218.3" departLane="random" departPos="base" departSpeed="speedLimit" />
  <vehicle id="CAV.163" type="CAV" route="main" depart="375.4" departLane="random" departPos="base" departSpeed="speedLimit" />
  <vehicle id="CAV.164" type="CAV" route="main" depart="550.1" departLane="random" departPos="base" departSpeed="speedLimit" />
  <vehicle id="CAV.165" type="CAV" route="main" depart="418.0" departLane="random" departPos="base" departSpeed="speedLimit" />
  <vehicle id="CAV.166" type="CAV" route="main" depart="551.9" departLane="random" departPos="base" departSpeed="speedLimit" />
  <vehicle id="CAV.167" type="CAV" route="main" depart="86.8" departLane="random" departPos="base" departSpeed="speedLimit" />
  <vehicle id="CAV.168" type="CAV" route="main" depart="539.3" departLane="random" departPos="base" departSpeed="speedLimit" />
  <vehicle id="CAV.169" type="CAV" route="main" depart="142.3" departLane="random" departPos="base" departSpeed="speedLimit" />
  <vehicle id="CAV.170" type="CAV" route="main" depart="485.5" departLane="random" departPos="base" departSpeed="speedLimit" />
  <vehicle id="CAV.171" type="CAV" route="main" depart="584.2" departLane="random" departPos="base" departSpeed="speedLimit" />
  <vehicle id="CAV.172" type="CAV" route="main" depart="525.3" departLane="random" departPos="base" departSpeed="speedLimit" />
  <vehicle id="CAV.173" type="CAV" route="main" depart="552.8" departLane="random" departPos="base" departSpeed="speedLimit" />
  <vehicle id="CAV.174" type="CAV" route="main" depart="84.0" departLane="random" departPos="base" departSpeed="speedLimit" />
  <vehicle id="CAV.175" type="CAV" route="main" depart="503.5" departLane="random" departPos="base" departSpeed="speedLimit" />
  <vehicle id="CAV.176" type="CAV" route="main" depart="423.5" departLane="random" departPos="base" departSpeed="speedLimit" />
  <vehicle id="CAV.177" type="CAV" route="main" depart="550.1" departLane="random" departPos="base" departSpeed="speedLimit" />
  <vehicle id="CAV.178" type="CAV" route="main" depart="4.2" departLane="random" departPos="base" departSpeed="speedLimit" />
  <vehicle id="CAV.179" type="CAV" route="main" depart="299.9" departLane="random" departPos="base" departSpeed="speedLimit" />
  <vehicle id="CAV.180" type="CAV" route="main" depart="95.2" departLane="random" departPos="base" departSpeed="speedLimit" />
  <vehicle id="CAV.181" type="CAV" route="main" depart="79.9" departLane="random" departPos="base" departSpeed="speedLimit" />
  <vehicle id="CAV.182" type="CAV" route="main" depart="340.7" departLane="random" departPos="base" departSpeed="speedLimit" />
  <vehicle id="CAV.183" type="CAV" route="main" depart="418.9" departLane="random" departPos="base" departSpeed="speedLimit" />
  <vehicle id="CAV.184" type="CAV" route="main" depart="233.0" departLane="random" departPos="base" departSpeed="speedLimit" />
  <vehicle id="CAV.185" type="CAV" route="main" depart="332.3" departLane="random" departPos="base" departSpeed="speedLimit" />
  <vehicle id="CAV.186" type="CAV" route="main" depart="158.8" departLane="random" departPos="base" departSpeed="speedLimit" />
  <vehicle id="CAV.187" type="CAV" route="main" depart="233.4" departLane="random" departPos="base" departSpeed="speedLimit" />
  <vehicle id="CAV.188" type="CAV" route="main" depart="87.9" departLane="random" departPos="base" departSpeed="speedLimit" />
  <vehicle id="CAV.189" type="CAV" route="main" depart="205.0" departLane="random" departPos="base" departSpeed="speedLimit" />
  <vehicle id="CAV.190" type="CAV" route="main" depart="369.6" departLane="random" departPos="base" departSpeed="speedLimit" />
  <vehicle id="CAV.191" type="CAV" route="main" depart="79.7" departLane="random" departPos="base" departSpeed="speedLimit" />
  <vehicle id="CAV.192" type="CAV" route="main" depart="185.8" departLane="random" departPos="base" departSpeed="speedLimit" />
  <vehicle id="CAV.193" type="CAV" route="main" depart="223.0" departLane="random" departPos="base" departSpeed="speedLimit" />
  <vehicle id="CAV.194" type="CAV" route="main" depart="382.7" departLane="random" departPos="base" departSpeed="speedLimit" />
  <vehicle id="CAV.195" type="CAV" route="main" depart="37.6" departLane="random" departPos="base" departSpeed="speedLimit" />
  <vehicle id="CAV.196" type="CAV" route="main" depart="530.8" departLane="random" departPos="base" departSpeed="speedLimit" />
  <vehicle id="CAV.197" type="CAV" route="main" depart="558.3" departLane="random" departPos="base" departSpeed="speedLimit" />
  <vehicle id="CAV.198" type="CAV" route="main" depart="123.9" departLane="random" departPos="base" departSpeed="speedLimit" />
  <vehicle id="CAV.199" type="CAV" route="main" depart="164.5" departLane="random" departPos="base" departSpeed="speedLimit" />
  <vehicle id="CAV.200" type="CAV" route="main" depart="208.8" departLane="random" departPos="base" departSpeed="speedLimit" />
  <vehicle id="CAV.201" type="CAV" route="main" depart="212.5" departLane="random" departPos="base" departSpeed="speedLimit" />
  <vehicle id="CAV.202" type="CAV" route="main" depart="510.5" departLane="random" departPos="base" departSpeed="speedLimit" />
  <vehicle id="CAV.203" type="CAV" route="main" depart="288.8" departLane="random" departPos="base" departSpeed="speedLimit" />
  <vehicle id="CAV.204" type="CAV" route="main" depart="16.6" departLane="random" departPos="base" departSpeed="speedLimit" />
  <vehicle id="CAV.205" type="CAV" route="main" depart="571.7" departLane="random" departPos="base" departSpeed="speedLimit" />
  <vehicle id="CAV.206" type="CAV" route="main" depart="468.2" departLane="random" departPos="base" departSpeed="speedLimit" />
  <vehicle id="CAV.207" type="CAV" route="main" depart="150.4" departLane="random" departPos="base" departSpeed="speedLimit" />
  <vehicle id="CAV.208" type="CAV" route="main" depart="50.4" departLane="random" departPos="base" departSpeed="speedLimit" />
  <vehicle id="CAV.209" type="CAV" route="main" depart="496.8" departLane="random" departPos="base" departSpeed="speedLimit" />
  <vehicle id="CAV.210" type="CAV" route="main" depart="153.6" departLane="random" departPos="base" departSpeed="speedLimit" />
  <vehicle id="CAV.211" type="CAV" route="main" depart="87.4" departLane="random" departPos="base" departSpeed="speedLimit" />
  <vehicle id="CAV.212" type="CAV" route="main" depart="215.5" departLane="random" departPos="base" departSpeed="speedLimit" />
  <vehicle id="CAV.213" type="CAV" route="main" depart="210.1" departLane="random" departPos="base" departSpeed="speedLimit" />
  <vehicle id="CAV.214" type="CAV" route="main" depart="100.2" departLane="random" departPos="base" departSpeed="speedLimit" />
  <vehicle id="CAV.215" type="CAV" route="main" depart="369.5" departLane="random" departPos="base" departSpeed="speedLimit" />
  <vehicle id="CAV.216" type="CAV" route="main" depart="244.3" departLane="random" departPos="base" departSpeed="speedLimit" />
  <vehicle id="CAV.217" type="CAV" route="main" depart="130.4" departLane="random" departPos="base" departSpeed="speedLimit" />
  <vehicle id="CAV.218" type="CAV" route="main" depart="187.5" departLane="random" departPos="base" departSpeed="speedLimit" />
  <vehicle id="CAV.219" type="CAV" route="main" depart="558.1" departLane="random" departPos="base" departSpeed="speedLimit" />
  <vehicle id="CAV.220" type="CAV" route="main" depart="356.7" departLane="random" departPos="base" departSpeed="speedLimit" />
  <vehicle id="CAV.221" type="CAV" route="main" depart="492.6" departLane="random" departPos="base" departSpeed="speedLimit" />