<?xml version='1.0' encoding='utf-8'?>
<routes>
  <vType id="HDV_0" color="127,255,0" length="3.5" carFollowModel="Krauss" accel="2.6" decel="4.5" tau="1.0" minGap="2.0" lcStrategic="-1" sigma="0.5" speedFactor="normc(1,0.1,0.2,2)" />
  <vType id="HDV_1" color="255,0,255" length="3.5" carFollowModel="W99" accel="2.6" decel="4.5" tau="2.0" minGap="2.0" lcStrategic="0" cc1="1.5" speedFactor="normc(1,0.1,0.2,2)" />
  <vType id="HDV_2" color="30,144,255" length="7.0" carFollowModel="W99" accel="1.5" decel="3.5" tau="1.5" minGap="3.0" lcStrategic="-1" speedFactor="normc(1,0.1,0.2,2)" />
  <vType id="CAV" color="255,0,0" length="3.5" carFollowModel="IDM" accel="3.0" decel="5.5" tau="1.0" minGap="1.4" lcStrategic="0" />
  <route id="main" edges="E1 E4 E6" />
  <route id="ramp" edges="E2 E3 E4 E6" />
  <flow id="main_hdv_0_0" type="HDV_0" route="main" vehsPerHour="0" begin="0" end="600" departLane="random" departSpeed="speedLimit" departPos="base" />
  <flow id="ramp_hdv_0_0" type="HDV_0" route="ramp" vehsPerHour="0" begin="0" end="600" departLane="random" departSpeed="speedLimit" departPos="free" />
  <flow id="main_hdv_0_1" type="HDV_1" route="main" vehsPerHour="0" begin="0" end="600" departLane="random" departSpeed="speedLimit" departPos="base" />
  <flow id="ramp_hdv_0_1" type="HDV_1" route="ramp" vehsPerHour="0" begin="0" end="600" departLane="random" departSpeed="speedLimit" departPos="free" />
  <flow id="main_hdv_0_2" type="HDV_2" route="main" vehsPerHour="0" begin="0" end="600" departLane="random" departSpeed="speedLimit" departPos="base" />
  <flow id="ramp_hdv_0_2" type="HDV_2" route="ramp" vehsPerHour="0" begin="0" end="600" departLane="random" departSpeed="speedLimit" departPos="free" />
  <vehicle id="CAV.1" type="CAV" route="main" depart="122.4" departLane="random" departPos="base" departSpeed="speedLimit" />
  <vehicle id="CAV.2" type="CAV" route="main" depart="94.7" departLane="random" departPos="base" departSpeed="speedLimit" />
  <vehicle id="CAV.3" type="CAV" route="main" depart="112.7" departLane="random" departPos="base" departSpeed="speedLimit" />
  <vehicle id="CAV.4" type="CAV" route="main" depart="543.4" departLane="random" departPos="base" departSpeed="speedLimit" />
  <vehicle id="CAV.5" type="CAV" route="main" depart="405.6" departLane="random" departPos="base" departSpeed="speedLimit" />
  <vehicle id="CAV.6" type="CAV" route="main" depart="564.3" departLane="random" departPos="base" departSpeed="speedLimit" />
  <vehicle id="CAV.7" type="CAV" route="main" depart="27.6" departLane="random" departPos="base" departSpeed="speedLimit" />
  <vehicle id="CAV.8" type="CAV" route="main" depart="288.8" departLane="random" departPos="base" departSpeed="speedLimit" />
  <vehicle id="CAV.9" type="CAV" route="main" depart="556.1" departLane="random" departPos="base" departSpeed="speedLimit" />
  <vehicle id="CAV.10" type="CAV" route="main" depart="282.6" departLane="random" departPos="base" departSpeed="speedLimit" />
  <vehicle id="CAV.11" type="CAV" route="main" depart="500.0" departLane="random" departPos="base" departSpeed="speedLimit" />
  <vehicle id="CAV.12" type="CAV" route="main" depart="451.7" departLane="random" departPos="base" departSpeed="speedLimit" />
  <vehicle id="CAV.13" type="CAV" route="main" depart="579.8" departLane="random" departPos="base" departSpeed="speedLimit" />
  <vehicle id="CAV.14" type="CAV" route="main" depart="409.0" departLane="random" departPos="base" departSpeed="speedLimit" />
  <vehicle id="CAV.15" type="CAV" route="main" depart="312.7" departLane="random" departPos="base" departSpeed="speedLimit" />
  <vehicle id="CAV.16" type="CAV" route="main" depart="172.5" departLane="random" departPos="base" departSpeed="speedLimit" />
  <vehicle id="CAV.17" type="CAV" route="main" depart="119.2" departLane="random" departPos="base" departSpeed="speedLimit" />
  <vehicle id="CAV.18" type="CAV" route="main" depart="522.9" departLane="random" departPos="base" departSpeed="speedLimit" />
  <vehicle id="CAV.19" type="CAV" route="main" depart="225.9" departLane="random" departPos="base" departSpeed="speedLimit" />
  <vehicle id="CAV.20" type="CAV" route="main" depart="188.2" departLane="random" departPos="base" departSpeed="speedLimit" />
  <vehicle id="CAV.21" type="CAV" route="main" depart="364.1" departLane="random" departPos="base" departSpeed="speedLimit" />
  <vehicle id="CAV.22" type="CAV" route="main" depart="480.3" departLane="random" departPos="base" departSpeed="speedLimit" />
  <vehicle id="CAV.23" type="CAV" route="main" depart="69.4" departLane="random" departPos="base" departSpeed="speedLimit" />
  <vehicle id="CAV.24" type="CAV" route="main" depart="510.2" departLane="random" departPos="base" departSpeed="speedLimit" />
  <vehicle id="CAV.25" type="CAV" route="main" depart="22.4" departLane="random" departPos="base" departSpeed="speedLimit" />
  <vehicle id="CAV.26" type="CAV" route="main" depart="381.3" departLane="random" departPos="base" departSpeed="speedLimit" />
  <vehicle id="CAV.27" type="CAV" route="main" depart="512.9" departLane="random" departPos="base" departSpeed="speedLimit" />
  <vehicle id="CAV.28" type="CAV" route="main" depart="422.8" departLane="random" departPos="base" departSpeed="speedLimit" />
  <vehicle id="CAV.29" type="CAV" route="main" depart="406.9" departLane="random" departPos="base" departSpeed="speedLimit" />
  <vehicle id="CAV.30" type="CAV" route="main" depart="462.5" departLane="random" departPos="base" departSpeed="speedLimit" />
  <vehicle id="CAV.31" type="CAV" route="main" depart="488.8" departLane="random" departPos="base" departSpeed="speedLimit" />
  <vehicle id="CAV.32" type="CAV" route="main" depart="510.7" departLane="random" departPos="base" departSpeed="speedLimit" />
  <vehicle id="CAV.33" type="CAV" route="main" depart="366.2" departLane="random" departPos="base" departSpeed="speedLimit" />
  <vehicle id="CAV.34" type="CAV" route="main" depart="504.7" departLane="random" departPos="base" departSpeed="speedLimit" />
  <vehicle id="CAV.35" type="CAV" route="main" depart="73.1" departLane="random" departPos="base" departSpeed="speedLimit" />
  <vehicle id="CAV.36" type="CAV" route="main" depart="59.1" departLane="random" departPos="base" departSpeed="speedLimit" />
  <vehicle id="CAV.37" type="CAV" route="main" depart="446.3" departLane="random" departPos="base" departSpeed="speedLimit" />
  <vehicle id="CAV.38" type="CAV" route="main" depart="0.6" departLane="random" departPos="base" departSpeed="speedLimit" />
  <vehicle id="CAV.39" type="CAV" route="main" depart="145.4" departLane="random" departPos="base" departSpeed="speedLimit" />
  <vehicle id="CAV.40" type="CAV" route="main" depart="354.3" departLane="random" departPos="base" departSpeed="speedLimit" />
  <vehicle id="CAV.41" type="CAV" route="main" depart="579.3" departLane="random" departPos="base" departSpeed="speedLimit" />
  <vehicle id="CAV.42" type="CAV" route="main" depart="417.7" departLane="random" departPos="base" departSpeed="speedLimit" />
  <vehicle id="CAV.43" type="CAV" route="main" depart="226.0" departLane="random" departPos="base" departSpeed="speedLimit" />
  <vehicle id="CAV.44" type="CAV" route="main" depart="159.7" departLane="random" departPos="base" departSpeed="speedLimit" />
  <vehicle id="CAV.45" type="CAV" route="main" depart="454.8" departLane="random" departPos="base" departSpeed="speedLimit" />
  <vehicle id="CAV.46" type="CAV" route="main" depart="559.1" departLane="random" departPos="base" departSpeed="speedLimit" />
  <vehicle id="CAV.47" type="CAV" route="main" depart="194.0" departLane="random" departPos="base" departSpeed="speedLimit" />
  <vehicle id="CAV.48" type="CAV" route="main" depart="428.0" departLane="random" departPos="base" departSpeed="speedLimit" />
  <vehicle id="CAV.49" type="CAV" route="main" depart="26.3" departLane="random" departPos="base" departSpeed="speedLimit" />
  <vehicle id="CAV.50" type="CAV" route="main" depart="166.4" departLane="random" departPos="base" departSpeed="speedLimit" />
  <vehicle id="CAV.51" type="CAV" route="main" depart="293.0" departLane="random" departPos="base" departSpeed="speedLimit" />
  <vehicle id="CAV.52" type="CAV" route="main" depart="222.4" departLane="random" departPos="base" departSpeed="speedLimit" />
  <vehicle id="CAV.53" type="CAV" route="main" depart="559.3" departLane="random" departPos="base" departSpeed="speedLimit" />
  <vehicle id="CAV.54" type="CAV" route="main" depart="571.0" departLane="random" departPos="base" departSpeed="speedLimit" />
  <vehicle id="CAV.55" type="CAV" route="main" depart="48.3" departLane="random" departPos="base" departSpeed="speedLimit" />
  <vehicle id="CAV.56" type="CAV" route="main" depart="342.6" departLane="random" departPos="base" departSpeed="speedLimit" />
  <vehicle id="CAV.57" type="CAV" route="main" depart="418.1" departLane="random" departPos="base" departSpeed="speedLimit" />
  <vehicle id="CAV.58" type="CAV" route="main" depart="402.1" departLane="random" departPos="base" departSpeed="speedLimit" />
  <vehicle id="CAV.59" type="CAV" route="main" depart="375.7" departLane="random" departPos="base" departSpeed="speedLimit" />
  <vehicle id="CAV.60" type="CAV" route="main" depart="145.3" departLane="random" departPos="base" departSpeed="speedLimit" />
  <vehicle id="CAV.61" type="CAV" route="main" depart="54.3" departLane="random" departPos="base" departSpeed="speedLimit" />
  <vehicle id="CAV.62" type="CAV" route="main" depart="56.1" departLane="random" departPos="base" departSpeed="speedLimit" />
  <vehicle id="CAV.63" type="CAV" route="main" depart="525.6" departLane="random" departPos="base" departSpeed="speedLimit" />
  <vehicle id="CAV.64" type="CAV" route="main" depart="32.9" departLane="random" departPos="base" departSpeed="speedLimit" />
  <vehicle id="CAV.65" type="CAV" route="main" depart="15.9" departLane="random" departPos="base" departSpeed="speedLimit" />
  <vehicle id="CAV.66" type="CAV" route="main" depart="459.7" departLane="random" departPos="base" departSpeed="speedLimit" />
  <vehicle id="CAV.67" type="CAV" route="main" depart="219.7" departLane="random" departPos="base" departSpeed="speedLimit" />
  <vehicle id="CAV.68" type="CAV" route="main" depart="369.2" departLane="random" departPos="base" departSpeed="speedLimit" />
  <vehicle id="CAV.69" type="CAV" route="main" depart="483.3" departLane="random" departPos="base" departSpeed="speedLimit" />
  <vehicle id="CAV.70" type="CAV" route="main" depart="433.7" departLane="random" departPos="base" departSpeed="speedLimit" />
  <vehicle id="CAV.71" type="CAV" route="main" depart="468.4" departLane="random" departPos="base" departSpeed="speedLimit" />
  <vehicle id="CAV.72" type="CAV" route="main" depart="388.2" departLane="random" departPos="base" departSpeed="speedLimit" />
  <vehicle id="CAV.73" type="CAV" route="main" depart="379.2" departLane="random" departPos="base" departSpeed="speedLimit" />
  <vehicle id="CAV.74" type="CAV" route="main" depart="249.4" departLane="random" departPos="base" departSpeed="speedLimit" />
  <vehicle id="CAV.75" type="CAV" route="main" depart="354.5" departLane="random" departPos="base" departSpeed="speedLimit" />
  <vehicle id="CAV.76" type="CAV" route="main" depart="582.9" departLane="random" departPos="base" departSpeed="speedLimit" />
  <vehicle id="CAV.77" type="CAV" route="main" depart="543.1" departLane="random" departPos="base" departSpeed="speedLimit" />
  <vehicle id="CAV.78" type="CAV" route="main" depart="104.3" departLane="random" departPos="base" departSpeed="speedLimit" />
  <vehicle id="CAV.79" type="CAV" route="main" depart="238.0" departLane="random" departPos="base" departSpeed="speedLimit" />
  <vehicle id="CAV.80" type="CAV" route="main" depart="334.5" departLane="random" departPos="base" departSpeed="speedLimit" />
  <vehicle id="CAV.81" type="CAV" route="main" depart="184.6" departLane="random" departPos="base" departSpeed="speedLimit" />
  <vehicle id="CAV.82" type="CAV" route="main" depart="5.0" departLane="random" departPos="base" departSpeed="speedLimit" />
  <vehicle id="CAV.83" type="CAV" route="main" depart="175.3" departLane="random" departPos="base" departSpeed="speedLimit" />
  <vehicle id="CAV.84" type="CAV" route="main" depart="350.6" departLane="random" departPos="base" departSpeed="speedLimit" />
  <vehicle id="CAV.85" type="CAV" route="main" depart="363.9" departLane="random" departPos="base" departSpeed="speedLimit" />
  <vehicle id="CAV.86" type="CAV" route="main" depart="365.5" departLane="random" departPos="base" departSpeed="speedLimit" />
  <vehicle id="CAV.87" type="CAV" route="main" depart="455.2" departLane="random" departPos="base" departSpeed="speedLimit" />
  <vehicle id="CAV.88" type="CAV" route="main" depart="419.2" departLane="random" departPos="base" departSpeed="speedLimit" />
  <vehicle id="CAV.89" type="CAV" route="main" depart="111.4" departLane="random" departPos="base" departSpeed="speedLimit" />
  <vehicle id="CAV.90" type="CAV" route="main" depart="431.2" departLane="random" departPos="base" departSpeed="speedLimit" />
  <vehicle id="CAV.91" type="CAV" route="main" depart="92.7" departLane="random" departPos="base" departSpeed="speedLimit" />
  <vehicle id="CAV.92" type="CAV" route="main" depart="23.3" departLane="random" departPos="base" departSpeed="speedLimit" />
  <vehicle id="CAV.93" type="CAV" route="main" depart="145.3" departLane="random" departPos="base" departSpeed="speedLimit" />
  <vehicle id="CAV.94" type="CAV" route="main" depart="219.3" departLane="random" departPos="base" departSpeed="speedLimit" />
  <vehicle id="CAV.95" type="CAV" route="main" depart="484.8" departLane="random" departPos="base" departSpeed="speedLimit" />
  <vehicle id="CAV.96" type="CAV" route="main" depart="14.6" departLane="random" departPos="base" departSpeed="speedLimit" />
  <vehicle id="CAV.97" type="CAV" route="main" depart="223.3" departLane="random" departPos="base" departSpeed="speedLimit" />
  <vehicle id="CAV.98" type="CAV" route="main" depart="107.1" departLane="random" departPos="base" departSpeed="speedLimit" />
  <vehicle id="CAV.99" type="CAV" route="main" depart="389.4" departLane="random" departPos="base" departSpeed="speedLimit" />
  <vehicle id="CAV.100" type="CAV" route="main" depart="7.4" departLane="random" departPos="base" departSpeed="speedLimit" />
  <vehicle id="CAV.101" type="CAV" route="main" depart="197.7" departLane="random" departPos="base" departSpeed="speedLimit" />
  <vehicle id="CAV.102" type="CAV" route="main" depart="163.6" departLane="random" departPos="base" departSpeed="speedLimit" />
  <vehicle id="CAV.103" type="CAV" route="main" depart="388.1" departLane="random" departPos="base" departSpeed="speedLimit" />
  <vehicle id="CAV.104" type="CAV" route="main" depart="307.6" departLane="random" departPos="base" departSpeed="speedLimit" />
  <vehicle id="CAV.105" type="CAV" route="main" depart="60.7" departLane="random" departPos="base" departSpeed="speedLimit" />
  <vehicle id="CAV.106" type="CAV" route="main" depart="436.7" departLane="random" departPos="base" departSpeed="speedLimit" />
  <vehicle id="CAV.107" type="CAV" route="main" depart="230.0" departLane="random" departPos="base" departSpeed="speedLimit" />
  <vehicle id="CAV.108" type="CAV" route="main" depart="231.4" departLane="random" departPos="base" departSpeed="speedLimit" />
  <vehicle id="CAV.109" type="CAV" route="main" depart="252.3" departLane="random" departPos="base" departSpeed="speedLimit" />
  <vehicle id="CAV.110" type="CAV" route="main" depart="362.0" departLane="random" departPos="base" departSpeed="speedLimit" />
  <vehicle id="CAV.111" type="CAV" route="main" depart="54.5" departLane="random" departPos="base" departSpeed="speedLimit" />
  <vehicle id="CAV.112" type="CAV" route="main" depart="228.7" departLane="random" departPos="base" departSpeed="speedLimit" />
  <vehicle id="CAV.113" type="CAV" route="main" depart="413.2" departLane="random" departPos="base" departSpeed="speedLimit" />
  <vehicle id="CAV.114" type="CAV" route="main" depart="296.8" departLane="random" departPos="base" departSpeed="speedLimit" />
  <vehicle id="CAV.115" type="CAV" route="main" depart="388.1" departLane="random" departPos="base" departSpeed="speedLimit" />
  <vehicle id="CAV.116" type="CAV" route="main" depart="528.0" departLane="random" departPos="base" departSpeed="speedLimit" />
  <vehicle id="CAV.117" type="CAV" route="main" depart="206.0" departLane="random" departPos="base" departSpeed="speedLimit" />
  <vehicle id="CAV.118" type="CAV" route="main" depart="592.9" departLane="random" departPos="base" departSpeed="speedLimit" />
  <vehicle id="CAV.119" type="CAV" route="main" depart="473.9" departLane="random" departPos="base" departSpeed="speedLimit" />
  <vehicle id="CAV.120" type="CAV" route="main" depart="73.5" departLane="random" departPos="base" departSpeed="speedLimit" />
  <vehicle id="CAV.121" type="CAV" route="main" depart="522.6" departLane="random" departPos="base" departSpeed="speedLimit" />
  <vehicle id="CAV.122" type="CAV" route="main" depart="333.6" departLane="random" departPos="base" departSpeed="speedLimit" />
  <vehicle id="CAV.123" type="CAV" route="main" depart="232.1" departLane="random" departPos="base" departSpeed="speedLimit" />
  <vehicle id="CAV.124" type="CAV" route="main" depart="82.4" departLane="random" departPos="base" departSpeed="speedLimit" />
  <vehicle id="CAV.125" type="CAV" route="main" depart="188.6" departLane="random" departPos="base" departSpeed="speedLimit" />
  <vehicle id="CAV.126" type="CAV" route="main" depart="14.8" departLane="random" departPos="base" departSpeed="speedLimit" />
  <vehicle id="CAV.127" type="CAV" route="main" depart="60.4" departLane="random" departPos="base" departSpeed="speedLimit" />
  <vehicle id="CAV.128" type="CAV" route="main" depart="318.6" departLane="random" departPos="base" departSpeed="speedLimit" />
  <vehicle id="CAV.129" type="CAV" route="main" depart="351.2" departLane="random" departPos="base" departSpeed="speedLimit" />
  <vehicle id="CAV.130" type="CAV" route="main" depart="52.8" departLane="random" departPos="base" departSpeed="speedLimit" />
  <vehicle id="CAV.131" type="CAV" route="main" depart="363.9" departLane="random" departPos="base" departSpeed="speedLimit" />
  <vehicle id="CAV.132" type="CAV" route="main" depart="278.6" departLane="random" departPos="base" departSpeed="speedLimit" />
  <vehicle id="CAV.133" type="CAV" route="main" depart="6.9" departLane="random" departPos="base" departSpeed="speedLimit" />
  <vehicle id="CAV.134" type="CAV" route="main" depart="495.3" departLane="random" departPos="base" departSpeed="speedLimit" />
  <vehicle id="CAV.135" type="CAV" route="main" depart="555.9" departLane="random" departPos="base" departSpeed="speedLimit" />
  <vehicle id="CAV.136" type="CAV" route="main" depart="385.9" departLane="random" departPos="base" departSpeed="speedLimit" />
  <vehicle id="CAV.137" type="CAV" route="main" depart="278.1" departLane="random" departPos="base" departSpeed="speedLimit" />
  <vehicle id="CAV.138" type="CAV" route="main" depart="115.2" departLane="random" departPos="base" departSpeed="speedLimit" />
  <vehicle id="CAV.139" type="CAV" route="main" depart="458.6" departLane="random" departPos="base" departSpeed="speedLimit" />
  <vehicle id="CAV.140" type="CAV" route="main" depart="142.8" departLane="random" departPos="base" departSpeed="speedLimit" />
  <vehicle id="CAV.141" type="CAV" route="main" depart="268.8" departLane="random" departPos="base" departSpeed="speedLimit" />
  <vehicle id="CAV.142" type="CAV" route="main" depart="96.7" departLane="random" departPos="base" departSpeed="speedLimit" />
  <vehicle id="CAV.143" type="CAV" route="main" depart="180.7" departLane="random" departPos="base" departSpeed="speedLimit" />
  <vehicle id="CAV.144" type="CAV" route="main" depart="242.5" departLane="random" departPos="base" departSpeed="speedLimit" />
  <vehicle id="CAV.145" type="CAV" route="main" depart="37.5" departLane="random" departPos="base" departSpeed="speedLimit" />
  <vehicle id="CAV.146" type="CAV" route="main" depart="348.2" departLane="random" departPos="base" departSpeed="speedLimit" />
  <vehicle id="CAV.147" type="CAV" route="main" depart="456.4" departLane="random" departPos="base" departSpeed="speedLimit" />
  <vehicle id="CAV.148" type="CAV" route="main" depart="384.1" departLane="random" departPos="base" departSpeed="speedLimit" />
  <vehicle id="CAV.149" type="CAV" route="main" depart="193.4" departLane="random" departPos="base" departSpeed="speedLimit" />
  <vehicle id="CAV.150" type="CAV" route="main" depart="330.9" departLane="random" departPos="base" departSpeed="speedLimit" />
  <vehicle id="CAV.151" type="CAV" route="main" depart="263.9" departLane="random" departPos="base" departSpeed="speedLimit" />
  <vehicle id="CAV.152" type="CAV" route="main" depart="532.5" departLane="random" departPos="base" departSpeed="speedLimit" />
  <vehicle id="CAV.153" type="CAV" route="main" depart="142.2" departLane="random" departPos="base" departSpeed="speedLimit" />
  <vehicle id="CAV.154" type="CAV" route="main" depart="519.3" departLane="random" departPos="base" departSpeed="speedLimit" />
  <vehicle id="CAV.155" type="CAV" route="main" depart="532.0" departLane="random" departPos="base" departSpeed="speedLimit" />
  <vehicle id="CAV.156" type="CAV" route="main" depart="495.4" departLane="random" departPos="base" departSpeed="speedLimit" />
  <vehicle id="CAV.157" type="CAV" route="main" depart="251.1" departLane="random" departPos="base" departSpeed="speedLimit" />
  <vehicle id="CAV.158" type="CAV" route="main" depart="176.4" departLane="random" departPos="base" departSpeed="speedLimit" />
  <vehicle id="CAV.159" type="CAV" route="main" depart="375.4" departLane="random" departPos="base" departSpeed="speedLimit" />
  <vehicle id="CAV.160" type="CAV" route="main" depart="310.7" departLane="random" departPos="base" departSpeed="speedLimit" />
  <vehicle id="CAV.161" type="CAV" route="main" depart="553.6" departLane="random" departPos="base" departSpeed="speedLimit" />
  <vehicle id="CAV.162" type="CAV" route="main" depart="32.9" departLane="random" departPos="base" departSpeed="speedLimit" />
  <vehicle id="CAV.163" type="CAV" route="main" depart="26.3" departLane="random" departPos="base" departSpeed="speedLimit" />
  <vehicle id="CAV.164" type="CAV" route="main" depart="234.2" departLane="random" departPos="base" departSpeed="speedLimit" />
  <vehicle id="CAV.165" type="CAV" route="main" depart="34.2" departLane="random" departPos="base" departSpeed="speedLimit" />
  <vehicle id="CAV.166" type="CAV" route="main" depart="531.9" departLane="random" departPos="base" departSpeed="speedLimit" />
  <vehicle id="CAV.167" type="CAV" route="main" depart="432.7" departLane="random" departPos="base" departSpeed="speedLimit" />
  <vehicle id="CAV.168" type="CAV" route="main" depart="47.3" departLane="random" departPos="base" departSpeed="speedLimit" />
  <vehicle id="CAV.169" type="CAV" route="main" depart="443.7" departLane="random" departPos="base" departSpeed="speedLimit" />
  <vehicle id="CAV.170" type="CAV" route="main" depart="206.7" departLane="random" departPos="base" departSpeed="speedLimit" />
  <vehicle id="CAV.171" type="CAV" route="main" depart="537.1" departLane="random" departPos="base" departSpeed="speedLimit" />
  <vehicle id="CAV.172" type="CAV" route="main" depart="560.2" departLane="random" departPos="base" departSpeed="speedLimit" />
  <vehicle id="CAV.173" type="CAV" route="main" depart="360.5" departLane="random" departPos="base" departSpeed="speedLimit" />
  <vehicle id="CAV.174" type="CAV" route="main" depart="452.9" departLane="random" departPos="base" departSpeed="speedLimit" />
  <vehicle id="CAV.175" type="CAV" route="main" depart="406.6" departLane="random" departPos="base" departSpeed="speedLimit" />
  <vehicle id="CAV.176" type="CAV" route="main" depart="266.4" departLane="random" departPos="base" departSpeed="speedLimit" />
  <vehicle id="CAV.177" type="CAV" route="main" depart="310.6" departLane="random" departPos="base" departSpeed="speedLimit" />
  <vehicle id="CAV.178" type="CAV" route="main" depart="313.7" departLane="random" departPos="base" departSpeed="speedLimit" />
  <vehicle id="CAV.179" type="CAV" route="main" depart="510.6" departLane="random" departPos="base" departSpeed="speedLimit" />
  <vehicle id="CAV.180" type="CAV" route="main" depart="88.6" departLane="random" departPos="base" departSpeed="speedLimit" />
  <vehicle id="CAV.181" type="CAV" route="main" depart="151.8" departLane="random" departPos="base" departSpeed="speedLimit" />
  <vehicle id="CAV.182" type="CAV" route="main" depart="109.6" departLane="random" departPos="base" departSpeed="speedLimit" />
  <vehicle id="CAV.183" type="CAV" route="main" depart="57.6" departLane="random" departPos="base" departSpeed="speedLimit" />
  <vehicle id="CAV.184" type="CAV" route="main" depart="118.6" departLane="random" departPos="base" departSpeed="speedLimit" />
  <vehicle id="CAV.185" type="CAV" route="main" depart="480.8" departLane="random" departPos="base" departSpeed="speedLimit" />
  <vehicle id="CAV.186" type="CAV" route="main" depart="71.4" departLane="random" departPos="base" departSpeed="speedLimit" />
  <vehicle id="CAV.187" type="CAV" route="main" depart="589.8" departLane="random" departPos="base" departSpeed="speedLimit" />
  <vehicle id="CAV.188" type="CAV" route="main" depart="203.8" departLane="random" departPos="base" departSpeed="speedLimit" />
  <vehicle id="CAV.189" type="CAV" route="main" depart="61.1" departLane="random" departPos="base" departSpeed="speedLimit" />
  <vehicle id="CAV.190" type="CAV" route="main" depart="298.9" departLane="random" departPos="base" departSpeed="speedLimit" />
  <vehicle id="CAV.191" type="CAV" route="main" depart="317.4" departLane="random" departPos="base" departSpeed="speedLimit" />
  <vehicle id="CAV.192" type="CAV" route="main" depart="308.4" departLane="random" departPos="base" departSpeed="speedLimit" />
  <vehicle id="CAV.193" type="CAV" route="main" depart="137.6" departLane="random" departPos="base" departSpeed="speedLimit" />
  <vehicle id="CAV.194" type="CAV" route="main" depart="564.6" departLane="random" departPos="base" departSpeed="speedLimit" />
  <vehicle id="CAV.195" type="CAV" route="main" depart="382.6" departLane="random" departPos="base" departSpeed="speedLimit" />
  <vehicle id="CAV.196" type="CAV" route="main" depart="129.4" departLane="random" departPos="base" departSpeed="speedLimit" />
  <vehicle id="CAV.197" type="CAV" route="main" depart="461.6" departLane="random" departPos="base" departSpeed="speedLimit" />
  <vehicle id="CAV.198" type="CAV" route="main" depart="48.4" departLane="random" departPos="base" departSpeed="speedLimit" />
  <vehicle id="CAV.199" type="CAV" route="main" depart="436.3" departLane="random" departPos="base" departSpeed="speedLimit" />
  <vehicle id="CAV.200" type="CAV" route="main" depart="96.7" departLane="random" departPos="base" departSpeed="speedLimit" />
  <vehicle id="CAV.201" type="CAV" route="main" depart="421.3" departLane="random" departPos="base" departSpeed="speedLimit" />
  <vehicle id="CAV.202" type="CAV" route="main" depart="64.6" departLane="random" departPos="base" departSpeed="speedLimit" />
  <vehicle id="CAV.203" type="CAV" route="main" depart="83.7" departLane="random" departPos="base" departSpeed="speedLimit" />
  <vehicle id="CAV.204" type="CAV" route="main" depart="515.1" departLane="random" departPos="base" departSpeed="speedLimit" />
  <vehicle id="CAV.205" type="CAV" route="main" depart="52.7" departLane="random" departPos="base" departSpeed="speedLimit" />
  <vehicle id="CAV.206" type="CAV" route="main" depart="32.0" departLane="random" departPos="base" departSpeed="speedLimit" />
  <vehicle id="CAV.207" type="CAV" route="main" depart="523.2" departLane="random" departPos="base" departSpeed="speedLimit" />
  <vehicle id="CAV.208" type="CAV" route="main" depart="223.0" departLane="random" departPos="base" departSpeed="speedLimit" />
  <vehicle id="CAV.209" type="CAV" route="main" depart="240.5" departLane="random" departPos="base" departSpeed="speedLimit" />
  <vehicle id="CAV.210" type="CAV" route="main" depart="365.6" departLane="random" departPos="base" departSpeed="speedLimit" />
  <vehicle id="CAV.211" type="CAV" route="main" depart="338.1" departLane="random" departPos="base" departSpeed="speedLimit" />
  <vehicle id="CAV.212" type="CAV" route="main" depart="214.7" departLane="random" departPos="base" departSpeed="speedLimit" />
  <vehicle id="CAV.213" type="CAV" route="main" depart="116.0" departLane="random" departPos="base" departSpeed="speedLimit" />
  <vehicle id="CAV.214" type="CAV" route="main" depart="451.5" departLane="random" departPos="base" departSpeed="speedLimit" />
  <vehicle id="CAV.215" type="CAV" route="main" depart="504.2" departLane="random" departPos="base" departSpeed="speedLimit" />
  <vehicle id="CAV.216" type="CAV" route="main" depart="211.0" departLane="random" departPos="base" departSpeed="speedLimit" />
  <vehicle id="CAV.217" type="CAV" route="main" depart="275.2" departLane="random" departPos="base" departSpeed="speedLimit" />
  <vehicle id="CAV.218" type="CAV" route="main" depart="156.8" departLane="random" departPos="base" departSpeed="speedLimit" />
  <vehicle id="CAV.219" type="CAV" route="main" depart="31.1" departLane="random" departPos="base" departSpeed="speedLimit" />
  <vehicle id="CAV.220" type="CAV" route="main" depart="214.9" departLane="random" departPos="base" departSpeed="speedLimit" />
  <vehicle id="CAV.221" type="CAV" route="main" depart="104.9" departLane="random" departPos="base" departSpeed="speedLimit" />
  <vehicle id="CAV.222" type="CAV" route="main" depart="54.5" departLane="random" departPos="base" departSpeed="speedLimit" />