<?xml version='1.0' encoding='utf-8'?>
<routes>
  <vType id="HDV_0" color="127,255,0" length="3.5" carFollowModel="Krauss" accel="2.6" decel="4.5" tau="1.0" minGap="2.0" lcStrategic="-1" sigma="0.5" speedFactor="normc(1,0.1,0.2,2)" />
  <vType id="HDV_1" color="255,0,255" length="3.5" carFollowModel="W99" accel="2.6" decel="4.5" tau="2.0" minGap="2.0" lcStrategic="0" cc1="1.5" speedFactor="normc(1,0.1,0.2,2)" />
  <vType id="HDV_2" color="30,144,255" length="7.0" carFollowModel="W99" accel="1.5" decel="3.5" tau="1.5" minGap="3.0" lcStrategic="-1" speedFactor="normc(1,0.1,0.2,2)" />
  <vType id="CAV" color="255,0,0" length="3.5" carFollowModel="IDM" accel="3.0" decel="5.5" tau="1.0" minGap="1.4" lcStrategic="0" />
  <route id="main" edges="E1 E4 E6" />
  <route id="ramp" edges="E2 E3 E4 E6" />
  <flow id="main_hdv_0_0" type="HDV_0" route="main" vehsPerHour="1045" begin="0" end="600" departLane="random" departSpeed="speedLimit" departPos="base" />
  <flow id="ramp_hdv_0_0" type="HDV_0" route="ramp" vehsPerHour="636" begin="0" end="600" departLane="random" departSpeed="speedLimit" departPos="free" />
  <flow id="main_hdv_0_1" type="HDV_1" route="main" vehsPerHour="1045" begin="0" end="600" departLane="random" departSpeed="speedLimit" departPos="base" />
  <flow id="ramp_hdv_0_1" type="HDV_1" route="ramp" vehsPerHour="636" begin="0" end="600" departLane="random" departSpeed="speedLimit" departPos="free" />
  <flow id="main_hdv_0_2" type="HDV_2" route="main" vehsPerHour="522" begin="0" end="600" departLane="random" departSpeed="speedLimit" departPos="base" />
  <flow id="ramp_hdv_0_2" type="HDV_2" route="ramp" vehsPerHour="318" begin="0" end="600" departLane="random" departSpeed="speedLimit" departPos="free" />
  <vehicle id="CAV.1" type="CAV" route="main" depart="272.0" departLane="random" departPos="base" departSpeed="speedLimit" />
  <vehicle id="CAV.2" type="CAV" route="main" depart="537.5" departLane="random" departPos="base" departSpeed="speedLimit" />
  <vehicle id="CAV.3" type="CAV" route="main" depart="574.3" departLane="random" departPos="base" departSpeed="speedLimit" />
  <vehicle id="CAV.4" type="CAV" route="main" depart="198.7" departLane="random" departPos="base" departSpeed="speedLimit" />
  <vehicle id="CAV.5" type="CAV" route="main" depart="431.1" departLane="random" departPos="base" departSpeed="speedLimit" />
  <vehicle id="CAV.6" type="CAV" route="main" depart="387.3" departLane="random" departPos="base" departSpeed="speedLimit" />
  <vehicle id="CAV.7" type="CAV" route="main" depart="261.5" departLane="random" departPos="base" departSpeed="speedLimit" />
  <vehicle id="CAV.8" type="CAV" route="main" depart="584.9" departLane="random" departPos="base" departSpeed="speedLimit" />
  <vehicle id="CAV.9" type="CAV" route="main" depart="34.6" departLane="random" departPos="base" departSpeed="speedLimit" />
  <vehicle id="CAV.10" type="CAV" route="main" depart="551.4" departLane="random" departPos="base" departSpeed="speedLimit" />
  <vehicle id="CAV.11" type="CAV" route="main" depart="593.3" departLane="random" departPos="base" departSpeed="speedLimit" />
  <vehicle id="CAV.12" type="CAV" route="main" depart="543.7" departLane="random" departPos="base" departSpeed="speedLimit" />
  <vehicle id="CAV.13" type="CAV" route="main" depart="287.0" departLane="random" departPos="base" departSpeed="speedLimit" />
  <vehicle id="CAV.14" type="CAV" route="main" depart="270.7" departLane="random" departPos="base" departSpeed="speedLimit" />
  <vehicle id="CAV.15" type="CAV" route="main" depart="486.1" departLane="random" departPos="base" departSpeed="speedLimit" />
  <vehicle id="CAV.16" type="CAV" route="main" depart="99.0" departLane="random" departPos="base" departSpeed="speedLimit" />
  <vehicle id="CAV.17" type="CAV" route="main" depart="239.2" departLane="random" departPos="base" departSpeed="speedLimit" />
  <vehicle id="CAV.18" type="CAV" route="main" depart="456.6" departLane="random" departPos="base" departSpeed="speedLimit" />
  <vehicle id="CAV.19" type="CAV" route="main" depart="587.2" departLane="random" departPos="base" departSpeed="speedLimit" />
  <vehicle id="CAV.20" type="CAV" route="main" depart="215.8" departLane="random" departPos="base" departSpeed="speedLimit" />
  <vehicle id="CAV.21" type="CAV" route="main" depart="407.0" departLane="random" departPos="base" departSpeed="speedLimit" />
  <vehicle id="CAV.22" type="CAV" route="main" depart="198.7" departLane="random" departPos="base" departSpeed="speedLimit" />
  <vehicle id="CAV.23" type="CAV" route="main" depart="15.9" departLane="random" departPos="base" departSpeed="speedLimit" />
  <vehicle id="CAV.24" type="CAV" route="main" depart="584.9" departLane="random" departPos="base" departSpeed="speedLimit" />
  <vehicle id="CAV.25" type="CAV" route="main" depart="189.4" departLane="random" departPos="base" departSpeed="speedLimit" />
  <vehicle id="CAV.26" type="CAV" route="main" depart="573.8" departLane="random" departPos="base" departSpeed="speedLimit" />
  <vehicle id="CAV.27" type="CAV" route="main" depart="112.9" departLane="random" departPos="base" departSpeed="speedLimit" />
  <vehicle id="CAV.28" type="CAV" route="main" depart="520.8" departLane="random" departPos="base" departSpeed="speedLimit" />
  <vehicle id="CAV.29" type="CAV" route="main" depart="566.7" departLane="random" departPos="base" departSpeed="speedLimit" />
  <vehicle id="CAV.30" type="CAV" route="main" depart="501.2" departLane="random" departPos="base" departSpeed="speedLimit" />
  <vehicle id="CAV.31" type="CAV" route="main" depart="470.1" departLane="random" departPos="base" departSpeed="speedLimit" />
  <vehicle id="CAV.32" type="CAV" route="main" depart="447.5" departLane="random" departPos="base" departSpeed="speedLimit" />
  <vehicle id="CAV.33" type="CAV" route="main" depart="439.0" departLane="random" departPos="base" departSpeed="speedLimit" />
  <vehicle id="CAV.34" type="CAV" route="main" depart="290.8" departLane="random" departPos="base" departSpeed="speedLimit" />
  <vehicle id="CAV.35" type="CAV" route="main" depart="50.5" departLane="random" departPos="base" departSpeed="speedLimit" />
  <vehicle id="CAV.36" type="CAV" route="main" depart="90.1" departLane="random" departPos="base" departSpeed="speedLimit" />
  <vehicle id="CAV.37" type="CAV" route="main" depart="371.9" departLane="random" departPos="base" departSpeed="speedLimit" />
  <vehicle id="CAV.38" type="CAV" route="main" depart="215.2" departLane="random" departPos="base" departSpeed="speedLimit" />
  <vehicle id="CAV.39" type="CAV" route="main" depart="384.1" departLane="random" departPos="base" departSpeed="speedLimit" />
  <vehicle id="CAV.40" type="CAV" route="main" depart="590.9" departLane="random" departPos="base" departSpeed="speedLimit" />
  <vehicle id="CAV.41" type="CAV" route="main" depart="328.8" departLane="random" departPos="base" departSpeed="speedLimit" />
  <vehicle id="CAV.42" type="CAV" route="main" depart="472.5" departLane="random" departPos="base" departSpeed="speedLimit" />
  <vehicle id="CAV.43" type="CAV" route="main" depart="580.2" departLane="random" departPos="base" departSpeed="speedLimit" />
  <vehicle id="CAV.44" type="CAV" route="main" depart="377.6" departLane="random" departPos="base" departSpeed="speedLimit" />
  <vehicle id="CAV.45" type="CAV" route="main" depart="486.2" departLane="random" departPos="base" departSpeed="speedLimit" />
  <vehicle id="CAV.46" type="CAV" route="main" depart="81.9" departLane="random" departPos="base" departSpeed="speedLimit" />
  <vehicle id="CAV.47" type="CAV" route="main" depart="344.3" departLane="random" departPos="base" departSpeed="speedLimit" />
  <vehicle id="CAV.48" type="CAV" route="main" depart="452.6" departLane="random" departPos="base" departSpeed="speedLimit" />
  <flow id="main_hdv_1_0" type="HDV_0" route="main" vehsPerHour="1332" begin="600" end="1200" departLane="random" departSpeed="speedLimit" departPos="base" />
  <flow id="ramp_hdv_1_0" type="HDV_0" route="ramp" vehsPerHour="644" begin="600" end="1200" departLane="random" departSpeed="speedLimit" departPos="free" />
  <flow id="main_hdv_1_1" type="HDV_1" route="main" vehsPerHour="1332" begin="600" end="1200" departLane="random" departSpeed="speedLimit" departPos="base" />
  <flow id="ramp_hdv_1_1" type="HDV_1" route="ramp" vehsPerHour="644" begin="600" end="1200" departLane="random" departSpeed="speedLimit" departPos="free" />
  <flow id="main_hdv_1_2" type="HDV_2" route="main" vehsPerHour="666" begin="600" end="1200" departLane="random" departSpeed="speedLimit" departPos="base" />
  <flow id="ramp_hdv_1_2" type="HDV_2" route="ramp" vehsPerHour="322" begin="600" end="1200" departLane="random" departSpeed="speedLimit" departPos="free" />
  <vehicle id="CAV.49" type="CAV" route="main" depart="918.3" departLane="random" departPos="base" departSpeed="speedLimit" />
  <vehicle id="CAV.50" type="CAV" route="main" depart="789.7" departLane="random" departPos="base" departSpeed="speedLimit" />
  <vehicle id="CAV.51" type="CAV" route="main" depart="873.1" departLane="random" departPos="base" departSpeed="speedLimit" />
  <vehicle id="CAV.52" type="CAV" route="main" depart="913.2" departLane="random" departPos="base" departSpeed="speedLimit" />
  <vehicle id="CAV.53" type="CAV" route="main" depart="668.4" departLane="random" departPos="base" departSpeed="speedLimit" />
  <vehicle id="CAV.54" type="CAV" route="main" depart="830.4" departLane="random" departPos="base" departSpeed="speedLimit" />
  <vehicle id="CAV.55" type="CAV" route="main" depart="1143.5" departLane="random" departPos="base" departSpeed="speedLimit" />
  <vehicle id="CAV.56" type="CAV" route="main" depart="1043.0" departLane="random" departPos="base" departSpeed="speedLimit" />
  <vehicle id="CAV.57" type="CAV" route="main" depart="796.7" departLane="random" departPos="base" departSpeed="speedLimit" />
  <vehicle id="CAV.58" type="CAV" route="main" depart="641.3" departLane="random" departPos="base" departSpeed="speedLimit" />
  <vehicle id="CAV.59" type="CAV" route="main" depart="1196.3" departLane="random" departPos="base" departSpeed="speedLimit" />
  <vehicle id="CAV.60" type="CAV" route="main" depart="770.4" departLane="random" departPos="base" departSpeed="speedLimit" />
  <vehicle id="CAV.61" type="CAV" route="main" depart="651.0" departLane="random" departPos="base" departSpeed="speedLimit" />
  <vehicle id="CAV.62" type="CAV" route="main" depart="1196.1" departLane="random" departPos="base" departSpeed="speedLimit" />
  <vehicle id="CAV.63" type="CAV" route="main" depart="681.0" departLane="random" departPos="base" departSpeed="speedLimit" />
  <vehicle id="CAV.64" type="CAV" route="main" depart="1149.5" departLane="random" departPos="base" departSpeed="speedLimit" />
  <vehicle id="CAV.65" type="CAV" route="main" depart="809.3" departLane="random" departPos="base" departSpeed="speedLimit" />
  <vehicle id="CAV.66" type="CAV" route="main" depart="706.2" departLane="random" departPos="base" departSpeed="speedLimit" />
  <vehicle id="CAV.67" type="CAV" route="main" depart="615.6" departLane="random" departPos="base" departSpeed="speedLimit" />
  <vehicle id="CAV.68" type="CAV" route="main" depart="742.7" departLane="random" departPos="base" departSpeed="speedLimit" />
  <vehicle id="CAV.69" type="CAV" route="main" depart="1110.5" departLane="random" departPos="base" departSpeed="speedLimit" />
  <vehicle id="CAV.70" type="CAV" route="main" depart="978.2" departLane="random" departPos="base" departSpeed="speedLimit" />
  <vehicle id="CAV.71" type="CAV" route="main" depart="943.8" departLane="random" departPos="base" departSpeed="speedLimit" />
  <vehicle id="CAV.72" type="CAV" route="main" depart="1018.8" departLane="random" departPos="base" departSpeed="speedLimit" />
  <vehicle id="CAV.73" type="CAV" route="main" depart="1066.0" departLane="random" departPos="base" departSpeed="speedLimit" />
  <vehicle id="CAV.74" type="CAV" route="main" depart="1105.7" departLane="random" departPos="base" departSpeed="speedLimit" />
  <vehicle id="CAV.75" type="CAV" route="main" depart="981.2" departLane="random" departPos="base" departSpeed="speedLimit" />
  <vehicle id="CAV.76" type="CAV" route="main" depart="1069.3" departLane="random" departPos="base" departSpeed="speedLimit" />
  <vehicle id="CAV.77" type="CAV" route="main" depart="667.2" departLane="random" departPos="base" departSpeed="speedLimit" />
  <vehicle id="CAV.78" type="CAV" route="main" depart="758.9" departLane="random" departPos="base" departSpeed="speedLimit" />
  <vehicle id="CAV.79" type="CAV" route="main" depart="937.9" departLane="random" departPos="base" departSpeed="speedLimit" />
  <vehicle id="CAV.80" type="CAV" route="main" depart="1071.4" departLane="random" departPos="base" departSpeed="speedLimit" />
  <vehicle id="CAV.81" type="CAV" route="main" depart="850.7" departLane="random" departPos="base" departSpeed="speedLimit" />
  <vehicle id="CAV.82" type="CAV" route="main" depart="712.8" departLane="random" departPos="base" departSpeed="speedLimit" />
  <vehicle id="CAV.83" type="CAV" route="main" depart="824.9" departLane="random" departPos="base" departSpeed="speedLimit" />
  <vehicle id="CAV.84" type="CAV" route="main" depart="1132.2" departLane="random" departPos="base" departSpeed="speedLimit" />
  <vehicle id="CAV.85" type="CAV" route="main" depart="620.3" departLane="random" departPos="base" departSpeed="speedLimit" />
  <vehicle id="CAV.86" type="CAV" route="main" depart="997.5" departLane="random" departPos="base" departSpeed="speedLimit" />
  <vehicle id="CAV.87" type="CAV" route="main" depart="1107.9" departLane="random" departPos="base" departSpeed="speedLimit" />
  <vehicle id="CAV.88" type="CAV" route="main" depart="687.7" departLane="random" departPos="base" departSpeed="speedLimit" />
  <vehicle id="CAV.89" type="CAV" route="main" depart="674.2" departLane="random" departPos="base" departSpeed="speedLimit" />
  <vehicle id="CAV.90" type="CAV" route="main" depart="1114.4" departLane="random" departPos="base" departSpeed="speedLimit" />
  <vehicle id="CAV.91" type="CAV" route="main" depart="1128.5" departLane="random" departPos="base" departSpeed="speedLimit" />
  <vehicle id="CAV.92" type="CAV" route="main" depart="1146.4" departLane="random" departPos="base" departSpeed="speedLimit" />
  <vehicle id="CAV.93" type="CAV" route="main" depart="855.6" departLane="random" departPos="base" departSpeed="speedLimit" />
  <vehicle id="CAV.94" type="CAV" route="main" depart="727.9" departLane="random" departPos="base" departSpeed="speedLimit" />
  <vehicle id="CAV.95" type="CAV" route="main" depart="906.4" departLane="random" departPos="base" departSpeed="speedLimit" />
  <vehicle id="CAV.96" type="CAV" route="main" depart="864.8" departLane="random" departPos="base" departSpeed="speedLimit" />
  <vehicle id="CAV.97" type="CAV" route="main" depart="712.9" departLane="random" departPos="base" departSpeed="speedLimit" />
  <vehicle id="CAV.98" type="CAV" route="main" depart="1106.8" departLane="random" departPos="base" departSpeed="speedLimit" />
  <vehicle id="CAV.99" type="CAV" route="main" depart="780.8" departLane="random" departPos="base" departSpeed="speedLimit" />
  <vehicle id="CAV.100" type="CAV" route="main" depart="1123.0" departLane="random" departPos="base" departSpeed="speedLimit" />
  <vehicle id="CAV.101" type="CAV" route="main" depart="763.3" departLane="random" departPos="base" departSpeed="speedLimit" />
  <vehicle id="CAV.102" type="CAV" route="main" depart="1195.3" departLane="random" departPos="base" departSpeed="speedLimit" />
  <vehicle id="CAV.103" type="CAV" route="main" depart="792.3" departLane="random" departPos="base" departSpeed="speedLimit" />
  <vehicle id="CAV.104" type="CAV" route="main" depart="1039.2" departLane="random" departPos="base" departSpeed="speedLimit" />
  <vehicle id="CAV.105" type="CAV" route="main" depart="768.7" departLane="random" departPos="base" departSpeed="speedLimit" />
  <vehicle id="CAV.106" type="CAV" route="main" depart="1017.1" departLane="random" departPos="base" departSpeed="speedLimit" />
  <vehicle id="CAV.107" type="CAV" route="main" depart="760.7" departLane="random" departPos="base" departSpeed="speedLimit" />
  <vehicle id="CAV.108" type="CAV" route="main" depart="918.9" departLane="random" departPos="base" departSpeed="speedLimit" />
  <vehicle id="CAV.109" type="CAV" route="main" depart="1073.2" departLane="random" departPos="base" departSpeed="speedLimit" />
  <flow id="main_hdv_2_0" type="HDV_0" route="main" vehsPerHour="1370" begin="1200" end="1800" departLane="random" departSpeed="speedLimit" departPos="base" />
  <flow id="ramp_hdv_2_0" type="HDV_0" route="ramp" vehsPerHour="619" begin="1200" end="1800" departLane="random" departSpeed="speedLimit" departPos="free" />
  <flow id="main_hdv_2_1" type="HDV_1" route="main" vehsPerHour="1370" begin="1200" end="1800" departLane="random" departSpeed="speedLimit" departPos="base" />
  <flow id="ramp_hdv_2_1" type="HDV_1" route="ramp" vehsPerHour="619" begin="1200" end="1800" departLane="random" departSpeed="speedLimit" departPos="free" />
  <flow id="main_hdv_2_2" type="HDV_2" route="main" vehsPerHour="685" begin="1200" end="1800" departLane="random" departSpeed="speedLimit" departPos="base" />
  <flow id="ramp_hdv_2_2" type="HDV_2" route="ramp" vehsPerHour="309" begin="1200" end="1800" departLane="random" departSpeed="speedLimit" departPos="free" />
  <vehicle id="CAV.110" type="CAV" route="main" depart="1766.7" departLane="random" departPos="base" departSpeed="speedLimit" />
  <vehicle id="CAV.111" type="CAV" route="main" depart="1519.3" departLane="random" departPos="base" departSpeed="speedLimit" />
  <vehicle id="CAV.112" type="CAV" route="main" depart="1321.7" departLane="random" departPos="base" departSpeed="speedLimit" />
  <vehicle id="CAV.113" type="CAV" route="main" depart="1420.4" departLane="random" departPos="base" departSpeed="speedLimit" />
  <vehicle id="CAV.114" type="CAV" route="main" depart="1665.7" departLane="random" departPos="base" departSpeed="speedLimit" />
  <vehicle id="CAV.115" type="CAV" route="main" depart="1546.1" departLane="random" departPos="base" departSpeed="speedLimit" />
  <vehicle id="CAV.116" type="CAV" route="main" depart="1749.5" departLane="random" departPos="base" departSpeed="speedLimit" />
  <vehicle id="CAV.117" type="CAV" route="main" depart="1623.0" departLane="random" departPos="base" departSpeed="speedLimit" />
  <vehicle id="CAV.118" type="CAV" route="main" depart="1612.1" departLane="random" departPos="base" departSpeed="speedLimit" />
  <vehicle id="CAV.119" type="CAV" route="main" depart="1239.4" departLane="random" departPos="base" departSpeed="speedLimit" />
  <vehicle id="CAV.120" type="CAV" route="main" depart="1611.6" departLane="random" departPos="base" departSpeed="speedLimit" />
  <vehicle id="CAV.121" type="CAV" route="main" depart="1545.7" departLane="random" departPos="base" departSpeed="speedLimit" />
  <vehicle id="CAV.122" type="CAV" route="main" depart="1328.7" departLane="random" departPos="base" departSpeed="speedLimit" />
  <vehicle id="CAV.123" type="CAV" route="main" depart="1463.4" departLane="random" departPos="base" departSpeed="speedLimit" />
  <vehicle id="CAV.124" type="CAV" route="main" depart="1686.9" departLane="random" departPos="base" departSpeed="speedLimit" />
  <vehicle id="CAV.125" type="CAV" route="main" depart="1302.3" departLane="random" departPos="base" departSpeed="speedLimit" />
  <vehicle id="CAV.126" type="CAV" route="main" depart="1458.9" departLane="random" departPos="base" departSpeed="speedLimit" />
  <vehicle id="CAV.127" type="CAV" route="main" depart="1746.0" departLane="random" departPos="base" departSpeed="speedLimit" />
  <vehicle id="CAV.128" type="CAV" route="main" depart="1772.2" departLane="random" departPos="base" departSpeed="speedLimit" />
  <vehicle id="CAV.129" type="CAV" route="main" depart="1623.7" departLane="random" departPos="base" departSpeed="speedLimit" />
  <vehicle id="CAV.130" type="CAV" route="main" depart="1579.7" departLane="random" departPos="base" departSpeed="speedLimit" />
  <vehicle id="CAV.131" type="CAV" route="main" depart="1223.2" departLane="random" departPos="base" departSpeed="speedLimit" />
  <vehicle id="CAV.132" type="CAV" route="main" depart="1267.3" departLane="random" departPos="base" departSpeed="speedLimit" />
  <vehicle id="CAV.133" type="CAV" route="main" depart="1309.4" departLane="random" departPos="base" departSpeed="speedLimit" />
  <vehicle id="CAV.134" type="CAV" route="main" depart="1786.5" departLane="random" departPos="base" departSpeed="speedLimit" />
  <vehicle id="CAV.135" type="CAV" route="main" depart="1372.9" departLane="random" departPos="base" departSpeed="speedLimit" />
  <vehicle id="CAV.136" type="CAV" route="main" depart="1615.0" departLane="random" departPos="base" departSpeed="speedLimit" />
  <vehicle id="CAV.137" type="CAV" route="main" depart="1331.0" departLane="random" departPos="base" departSpeed="speedLimit" />
  <vehicle id="CAV.138" type="CAV" route="main" depart="1441.2" departLane="random" departPos="base" departSpeed="speedLimit" />
  <vehicle id="CAV.139" type="CAV" route="main" depart="1388.7" departLane="random" departPos="base" departSpeed="speedLimit" />
  <vehicle id="CAV.140" type="CAV" route="main" depart="1530.0" departLane="random" departPos="base" departSpeed="speedLimit" />
  <vehicle id="CAV.141" type="CAV" route="main" depart="1410.1" departLane="random" departPos="base" departSpeed="speedLimit" />
  <vehicle id="CAV.142" type="CAV" route="main" depart="1465.7" departLane="random" departPos="base" departSpeed="speedLimit" />
  <vehicle id="CAV.143" type="CAV" route="main" depart="1779.4" departLane="random" departPos="base" departSpeed="speedLimit" />
  <vehicle id="CAV.144" type="CAV" route="main" depart="1345.0" departLane="random" departPos="base" departSpeed="speedLimit" />
  <vehicle id="CAV.145" type="CAV" route="main" depart="1543.7" departLane="random" departPos="base" departSpeed="speedLimit" />
  <vehicle id="CAV.146" type="CAV" route="main" depart="1344.5" departLane="random" departPos="base" departSpeed="speedLimit" />
  <vehicle id="CAV.147" type="CAV" route="main" depart="1478.9" departLane="random" departPos="base" departSpeed="speedLimit" />
  <vehicle id="CAV.148" type="CAV" route="main" depart="1544.3" departLane="random" departPos="base" departSpeed="speedLimit" />
  <vehicle id="CAV.149" type="CAV" route="main" depart="1326.2" departLane="random" departPos="base" departSpeed="speedLimit" />
  <vehicle id="CAV.150" type="CAV" route="main" depart="1304.1" departLane="random" departPos="base" departSpeed="speedLimit" />
  <vehicle id="CAV.151" type="CAV" route="main" depart="1508.0" departLane="random" departPos="base" departSpeed="speedLimit" />
  <vehicle id="CAV.152" type="CAV" route="main" depart="1738.0" departLane="random" departPos="base" departSpeed="speedLimit" />
  <vehicle id="CAV.153" type="CAV" route="main" depart="1652.0" departLane="random" departPos="base" departSpeed="speedLimit" />
  <vehicle id="CAV.154" type="CAV" route="main" depart="1640.6" departLane="random" departPos="base" departSpeed="speedLimit" />
  <vehicle id="CAV.155" type="CAV" route="main" depart="1450.6" departLane="random" departPos="base" departSpeed="speedLimit" />
  <vehicle id="CAV.156" type="CAV" route="main" depart="1732.2" departLane="random" departPos="base" departSpeed="speedLimit" />
  <vehicle id="CAV.157" type="CAV" route="main" depart="1318.6" departLane="random" departPos="base" departSpeed="speedLimit" />
  <vehicle id="CAV.158" type="CAV" route="main" depart="1323.7" departLane="random" departPos="base" departSpeed="speedLimit" />
  <vehicle id="CAV.159" type="CAV" route="main" depart="1489.1" departLane="random" departPos="base" departSpeed="speedLimit" />
  <vehicle id="CAV.160" type="CAV" route="main" depart="1297.0" departLane="random" departPos="base" departSpeed="speedLimit" />
  <vehicle id="CAV.161" type="CAV" route="main" depart="1700.0" departLane="random" departPos="base" departSpeed="speedLimit" />
  <vehicle id="CAV.162" type="CAV" route="main" depart="1598.1" departLane="random" departPos="base" departSpeed="speedLimit" />
  <vehicle id="CAV.163" type="CAV" route="main" depart="1601.2" departLane="random" departPos="base" departSpeed="speedLimit" />
  <vehicle id="CAV.164" type="CAV" route="main" depart="1469.8" departLane="random" departPos="base" departSpeed="speedLimit" />
  <vehicle id="CAV.165" type="CAV" route="main" depart="1637.4" departLane="random" departPos="base" departSpeed="speedLimit" />
  <vehicle id="CAV.166" type="CAV" route="main" depart="1353.5" departLane="random" departPos="base" departSpeed="speedLimit" />
  <vehicle id="CAV.167" type="CAV" route="main" depart="1620.8" departLane="random" departPos="base" departSpeed="speedLimit" />
  <vehicle id="CAV.168" type="CAV" route="main" depart="1215.8" departLane="random" departPos="base" departSpeed="speedLimit" />
  <vehicle id="CAV.169" type="CAV" route="main" depart="1461.8" departLane="random" departPos="base" departSpeed="speedLimit" />
  <vehicle id="CAV.170" type="CAV" route="main" depart="1371.7" departLane="random" departPos="base" departSpeed="speedLimit" />
  <vehicle id="CAV.171" type="CAV" route="main" depart="1668.6" departLane="random" departPos="base" departSpeed="speedLimit" />
  <vehicle id="CAV.172" type="CAV" route="main" depart="1312.5" departLane="random" departPos="base" departSpeed="speedLimit" />
  <flow id="main_hdv_3_0" type="HDV_0" route="main" vehsPerHour="1196" begin="1800" end="2400" departLane="random" departSpeed="speedLimit" departPos="base" />
  <flow id="ramp_hdv_3_0" type="HDV_0" route="ramp" vehsPerHour="756" begin="1800" end="2400" departLane="random" departSpeed="speedLimit" departPos="free" />
  <flow id="main_hdv_3_1" type="HDV_1" route="main" vehsPerHour="1196" begin="1800" end="2400" departLane="random" departSpeed="speedLimit" departPos="base" />
  <flow id="ramp_hdv_3_1" type="HDV_1" route="ramp" vehsPerHour="756" begin="1800" end="2400" departLane="random" departSpeed="speedLimit" departPos="free" />
  <flow id="main_hdv_3_2" type="HDV_2" route="main" vehsPerHour="598" begin="1800" end="2400" departLane="random" departSpeed="speedLimit" departPos="base" />
  <flow id="ramp_hdv_3_2" type="HDV_2" route="ramp" vehsPerHour="378" begin="1800" end="2400" departLane="random" departSpeed="speedLimit" departPos="free" />
  <vehicle id="CAV.173" type="CAV" route="main" depart="2189.1" departLane="random" departPos="base" departSpeed="speedLimit" />
  <vehicle id="CAV.174" type="CAV" route="main" depart="2035.5" departLane="random" departPos="base" departSpeed="speedLimit" />
  <vehicle id="CAV.175" type="CAV" route="main" depart="1860.4" departLane="random" departPos="base" departSpeed="speedLimit" />
  <vehicle id="CAV.176" type="CAV" route="main" depart="2011.2" departLane="random" departPos="base" departSpeed="speedLimit" />
  <vehicle id="CAV.177" type="CAV" route="main" depart="2105.9" departLane="random" departPos="base" departSpeed="speedLimit" />
  <vehicle id="CAV.178" type="CAV" route="main" depart="2120.4" departLane="random" departPos="base" departSpeed="speedLimit" />
  <vehicle id="CAV.179" type="CAV" route="main" depart="2053.3" departLane="random" departPos="base" departSpeed="speedLimit" />
  <vehicle id="CAV.180" type="CAV" route="main" depart="2169.1" departLane="random" departPos="base" departSpeed="speedLimit" />
  <vehicle id="CAV.181" type="CAV" route="main" depart="2099.3" departLane="random" departPos="base" departSpeed="speedLimit" />
  <vehicle id="CAV.182" type="CAV" route="main" depart="2270.0" departLane="random" departPos="base" departSpeed="speedLimit" />
  <vehicle id="CAV.183" type="CAV" route="main" depart="2331.4" departLane="random" departPos="base" departSpeed="speedLimit" />
  <vehicle id="CAV.184" type="CAV" route="main" depart="1832.9" departLane="random" departPos="base" departSpeed="speedLimit" />
  <vehicle id="CAV.185" type="CAV" route="main" depart="2075.7" departLane="random" departPos="base" departSpeed="speedLimit" />
  <vehicle id="CAV.186" type="CAV" route="main" depart="1847.8" departLane="random" departPos="base" departSpeed="speedLimit" />
  <vehicle id="CAV.187" type="CAV" route="main" depart="1843.8" departLane="random" departPos="base" departSpeed="speedLimit" />
  <vehicle id="CAV.188" type="CAV" route="main" depart="2310.6" departLane="random" departPos="base" departSpeed="speedLimit" />
  <vehicle id="CAV.189" type="CAV" route="main" depart="2120.8" departLane="random" departPos="base" departSpeed="speedLimit" />
  <vehicle id="CAV.190" type="CAV" route="main" depart="2002.0" departLane="random" departPos="base" departSpeed="speedLimit" />
  <vehicle id="CAV.191" type="CAV" route="main" depart="2062.0" departLane="random" departPos="base" departSpeed="speedLimit" />
  <vehicle id="CAV.192" type="CAV" route="main" depart="2353.1" departLane="random" departPos="base" departSpeed="speedLimit" />
  <vehicle id="CAV.193" type="CAV" route="main" depart="2229.2" departLane="random" departPos="base" departSpeed="speedLimit" />
  <vehicle id="CAV.194" type="CAV" route="main" depart="2168.6" departLane="random" departPos="base" departSpeed="speedLimit" />
  <vehicle id="CAV.195" type="CAV" route="main" depart="2379.4" departLane="random" departPos="base" departSpeed="speedLimit" />
  <vehicle id="CAV.196" type="CAV" route="main" depart="1816.5" departLane="random" departPos="base" departSpeed="speedLimit" />
  <vehicle id="CAV.197" type="CAV" route="main" depart="2027.8" departLane="random" departPos="base" departSpeed="speedLimit" />
  <vehicle id="CAV.198" type="CAV" route="main" depart="2219.6" departLane="random" departPos="base" departSpeed="speedLimit" />