<?xml version='1.0' encoding='utf-8'?>
<routes>
  <vType id="HDV_0" color="127,255,0" length="3.5" carFollowModel="Krauss" accel="2.6" decel="4.5" tau="1.0" minGap="2.0" lcStrategic="-1" sigma="0.5" speedFactor="normc(1,0.1,0.2,2)" />
  <vType id="HDV_1" color="255,0,255" length="3.5" carFollowModel="W99" accel="2.6" decel="4.5" tau="2.0" minGap="2.0" lcStrategic="0" cc1="1.5" speedFactor="normc(1,0.1,0.2,2)" />
  <vType id="HDV_2" color="30,144,255" length="7.0" carFollowModel="W99" accel="1.5" decel="3.5" tau="1.5" minGap="3.0" lcStrategic="-1" speedFactor="normc(1,0.1,0.2,2)" />
  <vType id="CAV" color="255,0,0" length="3.5" carFollowModel="IDM" accel="3.0" decel="5.5" tau="1.0" minGap="1.4" lcStrategic="0" />
  <route id="main" edges="E1 E4 E6" />
  <route id="ramp" edges="E2 E3 E4 E6" />
  <flow id="main_hdv_0_0" type="HDV_0" route="main" vehsPerHour="904" begin="0" end="600" departLane="random" departSpeed="speedLimit" departPos="base" />
  <flow id="ramp_hdv_0_0" type="HDV_0" route="ramp" vehsPerHour="498" begin="0" end="600" departLane="random" departSpeed="speedLimit" departPos="free" />
  <flow id="main_hdv_0_1" type="HDV_1" route="main" vehsPerHour="904" begin="0" end="600" departLane="random" departSpeed="speedLimit" departPos="base" />
  <flow id="ramp_hdv_0_1" type="HDV_1" route="ramp" vehsPerHour="498" begin="0" end="600" departLane="random" departSpeed="speedLimit" departPos="free" />
  <flow id="main_hdv_0_2" type="HDV_2" route="main" vehsPerHour="452" begin="0" end="600" departLane="random" departSpeed="speedLimit" departPos="base" />
  <flow id="ramp_hdv_0_2" type="HDV_2" route="ramp" vehsPerHour="249" begin="0" end="600" departLane="random" departSpeed="speedLimit" departPos="free" />
  <vehicle id="CAV.1" type="CAV" route="main" depart="325.7" departLane="random" departPos="base" departSpeed="speedLimit" />
  <vehicle id="CAV.2" type="CAV" route="main" depart="467.7" departLane="random" departPos="base" departSpeed="speedLimit" />
  <vehicle id="CAV.3" type="CAV" route="main" depart="304.4" departLane="random" departPos="base" departSpeed="speedLimit" />
  <vehicle id="CAV.4" type="CAV" route="main" depart="99.4" departLane="random" departPos="base" departSpeed="speedLimit" />
  <vehicle id="CAV.5" type="CAV" route="main" depart="8.9" departLane="random" departPos="base" departSpeed="speedLimit" />
  <vehicle id="CAV.6" type="CAV" route="main" depart="266.1" departLane="random" departPos="base" departSpeed="speedLimit" />
  <vehicle id="CAV.7" type="CAV" route="main" depart="140.4" departLane="random" departPos="base" departSpeed="speedLimit" />
  <vehicle id="CAV.8" type="CAV" route="main" depart="474.9" departLane="random" departPos="base" departSpeed="speedLimit" />
  <vehicle id="CAV.9" type="CAV" route="main" depart="46.9" departLane="random" departPos="base" departSpeed="speedLimit" />
  <vehicle id="CAV.10" type="CAV" route="main" depart="80.7" departLane="random" departPos="base" departSpeed="speedLimit" />
  <vehicle id="CAV.11" type="CAV" route="main" depart="257.7" departLane="random" departPos="base" departSpeed="speedLimit" />
  <vehicle id="CAV.12" type="CAV" route="main" depart="517.3" departLane="random" departPos="base" departSpeed="speedLimit" />
  <vehicle id="CAV.13" type="CAV" route="main" depart="347.5" departLane="random" departPos="base" departSpeed="speedLimit" />
  <vehicle id="CAV.14" type="CAV" route="main" depart="293.4" departLane="random" departPos="base" departSpeed="speedLimit" />
  <vehicle id="CAV.15" type="CAV" route="main" depart="129.8" departLane="random" departPos="base" departSpeed="speedLimit" />
  <vehicle id="CAV.16" type="CAV" route="main" depart="136.0" departLane="random" departPos="base" departSpeed="speedLimit" />
  <vehicle id="CAV.17" type="CAV" route="main" depart="472.7" departLane="random" departPos="base" departSpeed="speedLimit" />
  <vehicle id="CAV.18" type="CAV" route="main" depart="279.0" departLane="random" departPos="base" departSpeed="speedLimit" />
  <vehicle id="CAV.19" type="CAV" route="main" depart="372.1" departLane="random" departPos="base" departSpeed="speedLimit" />
  <vehicle id="CAV.20" type="CAV" route="main" depart="135.2" departLane="random" departPos="base" departSpeed="speedLimit" />
  <vehicle id="CAV.21" type="CAV" route="main" depart="30.0" departLane="random" departPos="base" departSpeed="speedLimit" />
  <vehicle id="CAV.22" type="CAV" route="main" depart="13.8" departLane="random" departPos="base" departSpeed="speedLimit" />
  <vehicle id="CAV.23" type="CAV" route="main" depart="221.2" departLane="random" departPos="base" departSpeed="speedLimit" />
  <vehicle id="CAV.24" type="CAV" route="main" depart="272.8" departLane="random" departPos="base" departSpeed="speedLimit" />
  <vehicle id="CAV.25" type="CAV" route="main" depart="170.9" departLane="random" departPos="base" departSpeed="speedLimit" />
  <vehicle id="CAV.26" type="CAV" route="main" depart="87.9" departLane="random" departPos="base" departSpeed="speedLimit" />
  <vehicle id="CAV.27" type="CAV" route="main" depart="487.8" departLane="random" departPos="base" departSpeed="speedLimit" />
  <vehicle id="CAV.28" type="CAV" route="main" depart="280.1" departLane="random" departPos="base" departSpeed="speedLimit" />
  <vehicle id="CAV.29" type="CAV" route="main" depart="189.4" departLane="random" departPos="base" departSpeed="speedLimit" />
  <vehicle id="CAV.30" type="CAV" route="main" depart="282.7" departLane="random" departPos="base" departSpeed="speedLimit" />
  <vehicle id="CAV.31" type="CAV" route="main" depart="78.9" departLane="random" departPos="base" departSpeed="speedLimit" />
  <vehicle id="CAV.32" type="CAV" route="main" depart="5.3" departLane="random" departPos="base" departSpeed="speedLimit" />
  <vehicle id="CAV.33" type="CAV" route="main" depart="274.7" departLane="random" departPos="base" departSpeed="speedLimit" />
  <vehicle id="CAV.34" type="CAV" route="main" depart="88.7" departLane="random" departPos="base" departSpeed="speedLimit" />
  <vehicle id="CAV.35" type="CAV" route="main" depart="108.1" departLane="random" departPos="base" departSpeed="speedLimit" />
  <vehicle id="CAV.36" type="CAV" route="main" depart="481.8" departLane="random" departPos="base" departSpeed="speedLimit" />
  <vehicle id="CAV.37" type="CAV" route="main" depart="513.6" departLane="random" departPos="base" departSpeed="speedLimit" />
  <vehicle id="CAV.38" type="CAV" route="main" depart="79.0" departLane="random" departPos="base" departSpeed="speedLimit" />
  <vehicle id="CAV.39" type="CAV" route="main" depart="565.1" departLane="random" departPos="base" departSpeed="speedLimit" />
  <vehicle id="CAV.40" type="CAV" route="main" depart="509.6" departLane="random" departPos="base" departSpeed="speedLimit" />
  <vehicle id="CAV.41" type="CAV" route="main" depart="73.9" departLane="random" departPos="base" departSpeed="speedLimit" />
  <vehicle id="CAV.42" type="CAV" route="main" depart="574.7" departLane="random" departPos="base" departSpeed="speedLimit" />
  <vehicle id="CAV.43" type="CAV" route="main" depart="273.9" departLane="random" departPos="base" departSpeed="speedLimit" />
  <vehicle id="CAV.44" type="CAV" route="main" depart="42.1" departLane="random" departPos="base" departSpeed="speedLimit" />
  <vehicle id="CAV.45" type="CAV" route="main" depart="539.0" departLane="random" departPos="base" departSpeed="speedLimit" />
  <vehicle id="CAV.46" type="CAV" route="main" depart="111.6" departLane="random" departPos="base" departSpeed="speedLimit" />
  <vehicle id="CAV.47" type="CAV" route="main" depart="326.1" departLane="random" departPos="base" departSpeed="speedLimit" />
  <vehicle id="CAV.48" type="CAV" route="main" depart="233.9" departLane="random" departPos="base" departSpeed="speedLimit" />
  <vehicle id="CAV.49" type="CAV" route="main" depart="316.9" departLane="random" departPos="base" departSpeed="speedLimit" />
  <vehicle id="CAV.50" type="CAV" route="main" depart="366.3" departLane="random" departPos="base" departSpeed="speedLimit" />
  <vehicle id="CAV.51" type="CAV" route="main" depart="352.4" departLane="random" departPos="base" departSpeed="speedLimit" />
  <vehicle id="CAV.52" type="CAV" route="main" depart="458.7" departLane="random" departPos="base" departSpeed="speedLimit" />
  <vehicle id="CAV.53" type="CAV" route="main" depart="247.4" departLane="random" departPos="base" departSpeed="speedLimit" />
  <vehicle id="CAV.54" type="CAV" route="main" depart="349.5" departLane="random" departPos="base" departSpeed="speedLimit" />
  <vehicle id="CAV.55" type="CAV" route="main" depart="443.7" departLane="random" departPos="base" departSpeed="speedLimit" />
  <vehicle id="CAV.56" type="CAV" route="main" depart="355.2" departLane="random" departPos="base" departSpeed="speedLimit" />
  <vehicle id="CAV.57" type="CAV" route="main" depart="313.4" departLane="random" departPos="base" departSpeed="speedLimit" />
  <vehicle id="CAV.58" type="CAV" route="main" depart="415.0" departLane="random" departPos="base" departSpeed="speedLimit" />
  <vehicle id="CAV.59" type="CAV" route="main" depart="156.6" departLane="random" departPos="base" departSpeed="speedLimit" />
  <vehicle id="CAV.60" type="CAV" route="main" depart="530.7" departLane="random" departPos="base" departSpeed="speedLimit" />
  <vehicle id="CAV.61" type="CAV" route="main" depart="417.1" departLane="random" departPos="base" departSpeed="speedLimit" />
  <vehicle id="CAV.62" type="CAV" route="main" depart="39.0" departLane="random" departPos="base" departSpeed="speedLimit" />
  <vehicle id="CAV.63" type="CAV" route="main" depart="141.2" departLane="random" departPos="base" departSpeed="speedLimit" />
  <vehicle id="CAV.64" type="CAV" route="main" depart="144.2" departLane="random" departPos="base" departSpeed="speedLimit" />
  <vehicle id="CAV.65" type="CAV" route="main" depart="272.9" departLane="random" departPos="base" departSpeed="speedLimit" />
  <vehicle id="CAV.66" type="CAV" route="main" depart="436.7" departLane="random" departPos="base" departSpeed="speedLimit" />
  <vehicle id="CAV.67" type="CAV" route="main" depart="41.7" departLane="random" departPos="base" departSpeed="speedLimit" />
  <vehicle id="CAV.68" type="CAV" route="main" depart="240.3" departLane="random" departPos="base" departSpeed="speedLimit" />
  <vehicle id="CAV.69" type="CAV" route="main" depart="465.9" departLane="random" departPos="base" departSpeed="speedLimit" />
  <vehicle id="CAV.70" type="CAV" route="main" depart="97.3" departLane="random" departPos="base" departSpeed="speedLimit" />
  <vehicle id="CAV.71" type="CAV" route="main" depart="46.6" departLane="random" departPos="base" departSpeed="speedLimit" />
  <vehicle id="CAV.72" type="CAV" route="main" depart="315.2" departLane="random" departPos="base" departSpeed="speedLimit" />
  <vehicle id="CAV.73" type="CAV" route="main" depart="307.0" departLane="random" departPos="base" departSpeed="speedLimit" />
  <vehicle id="CAV.74" type="CAV" route="main" depart="309.4" departLane="random" departPos="base" departSpeed="speedLimit" />
  <vehicle id="CAV.75" type="CAV" route="main" depart="91.1" departLane="random" departPos="base" departSpeed="speedLimit" />
  <vehicle id="CAV.76" type="CAV" route="main" depart="126.1" departLane="random" departPos="base" departSpeed="speedLimit" />
  <vehicle id="CAV.77" type="CAV" route="main" depart="99.4" departLane="random" departPos="base" departSpeed="speedLimit" />
  <vehicle id="CAV.78" type="CAV" route="main" depart="392.1" departLane="random" departPos="base" departSpeed="speedLimit" />
  <vehicle id="CAV.79" type="CAV" route="main" depart="163.7" departLane="random" departPos="base" departSpeed="speedLimit" />
  <vehicle id="CAV.80" type="CAV" route="main" depart="361.6" departLane="random" departPos="base" departSpeed="speedLimit" />
  <vehicle id="CAV.81" type="CAV" route="main" depart="50.9" departLane="random" departPos="base" departSpeed="speedLimit" />
  <vehicle id="CAV.82" type="CAV" route="main" depart="92.9" departLane="random" departPos="base" departSpeed="speedLimit" />
  <vehicle id="CAV.83" type="CAV" route="main" depart="231.0" departLane="random" departPos="base" departSpeed="speedLimit" />
  <vehicle id="CAV.84" type="CAV" route="main" depart="473.9" departLane="random" departPos="base" departSpeed="speedLimit" />
  <vehicle id="CAV.85" type="CAV" route="main" depart="541.3" departLane="random" departPos="base" departSpeed="speedLimit" />
  <vehicle id="CAV.86" type="CAV" route="main" depart="83.0" departLane="random" departPos="base" departSpeed="speedLimit" />
  <vehicle id="CAV.87" type="CAV" route="main" depart="435.5" departLane="random" departPos="base" departSpeed="speedLimit" />
  <vehicle id="CAV.88" type="CAV" route="main" depart="510.6" departLane="random" departPos="base" departSpeed="speedLimit" />
  <vehicle id="CAV.89" type="CAV" route="main" depart="79.4" departLane="random" departPos="base" departSpeed="speedLimit" />
  <vehicle id="CAV.90" type="CAV" route="main" depart="524.7" departLane="random" departPos="base" departSpeed="speedLimit" />
  <vehicle id="CAV.91" type="CAV" route="main" depart="205.0" departLane="random" departPos="base" departSpeed="speedLimit" />
  <vehicle id="CAV.92" type="CAV" route="main" depart="217.8" departLane="random" departPos="base" departSpeed="speedLimit" />
  <vehicle id="CAV.93" type="CAV" route="main" depart="483.1" departLane="random" departPos="base" departSpeed="speedLimit" />
  <vehicle id="CAV.94" type="CAV" route="main" depart="45.0" departLane="random" departPos="base" departSpeed="speedLimit" />
  <vehicle id="CAV.95" type="CAV" route="main" depart="90.7" departLane="random" departPos="base" departSpeed="speedLimit" />
  <vehicle id="CAV.96" type="CAV" route="main" depart="389.2" departLane="random" departPos="base" departSpeed="speedLimit" />
  <vehicle id="CAV.97" type="CAV" route="main" depart="304.6" departLane="random" departPos="base" departSpeed="speedLimit" />
  <vehicle id="CAV.98" type="CAV" route="main" depart="591.9" departLane="random" departPos="base" departSpeed="speedLimit" />
  <vehicle id="CAV.99" type="CAV" route="main" depart="359.0" departLane="random" departPos="base" departSpeed="speedLimit" />
  <vehicle id="CAV.100" type="CAV" route="main" depart="337.6" departLane="random" departPos="base" departSpeed="speedLimit" />
  <vehicle id="CAV.101" type="CAV" route="main" depart="205.2" departLane="random" departPos="base" departSpeed="speedLimit" />
  <vehicle id="CAV.102" type="CAV" route="main" depart="597.0" departLane="random" departPos="base" departSpeed="speedLimit" />
  <vehicle id="CAV.103" type="CAV" route="main" depart="287.8" departLane="random" departPos="base" departSpeed="speedLimit" />
  <vehicle id="CAV.104" type="CAV" route="main" depart="415.7" departLane="random" departPos="base" departSpeed="speedLimit" />
  <vehicle id="CAV.105" type="CAV" route="main" depart="355.6" departLane="random" departPos="base" departSpeed="speedLimit" />
  <vehicle id="CAV.106" type="CAV" route="main" depart="417.9" departLane="random" departPos="base" departSpeed="speedLimit" />
  <vehicle id="CAV.107" type="CAV" route="main" depart="16.2" departLane="random" departPos="base" departSpeed="speedLimit" />
  <vehicle id="CAV.108" type="CAV" route="main" depart="448.8" departLane="random" departPos="base" departSpeed="speedLimit" />
  <vehicle id="CAV.109" type="CAV" route="main" depart="24.3" departLane="random" departPos="base" departSpeed="speedLimit" />
  <vehicle id="CAV.110" type="CAV" route="main" depart="313.0" departLane="random" departPos="base" departSpeed="speedLimit" />
  <vehicle id="CAV.111" type="CAV" route="main" depart="78.9" departLane="random" departPos="base" departSpeed="speedLimit" />
  <vehicle id="CAV.112" type="CAV" route="main" depart="40.4" departLane="random" departPos="base" departSpeed="speedLimit" />
  <vehicle id="CAV.113" type="CAV" route="main" depart="112.8" departLane="random" departPos="base" departSpeed="speedLimit" />
  <vehicle id="CAV.114" type="CAV" route="main" depart="217.7" departLane="random" departPos="base" departSpeed="speedLimit" />
  <vehicle id="CAV.115" type="CAV" route="main" depart="51.6" departLane="random" departPos="base" departSpeed="speedLimit" />
  <vehicle id="CAV.116" type="CAV" route="main" depart="384.3" departLane="random" departPos="base" departSpeed="speedLimit" />
  <vehicle id="CAV.117" type="CAV" route="main" depart="517.0" departLane="random" departPos="base" departSpeed="speedLimit" />
  <vehicle id="CAV.118" type="CAV" route="main" depart="19.8" departLane="random" departPos="base" departSpeed="speedLimit" />
  <vehicle id="CAV.119" type="CAV" route="main" depart="89.9" departLane="random" departPos="base" departSpeed="speedLimit" />
  <vehicle id="CAV.120" type="CAV" route="main" depart="304.4" departLane="random" departPos="base" departSpeed="speedLimit" />
  <vehicle id="CAV.121" type="CAV" route="main" depart="17.3" departLane="random" departPos="base" departSpeed="speedLimit" />
  <vehicle id="CAV.122" type="CAV" route="main" depart="560.9" departLane="random" departPos="base" departSpeed="speedLimit" />
  <vehicle id="CAV.123" type="CAV" route="main" depart="408.6" departLane="random" departPos="base" departSpeed="speedLimit" />
  <vehicle id="CAV.124" type="CAV" route="main" depart="216.4" departLane="random" departPos="base" departSpeed="speedLimit" />
  <vehicle id="CAV.125" type="CAV" route="main" depart="144.2" departLane="random" departPos="base" departSpeed="speedLimit" />
  <vehicle id="CAV.126" type="CAV" route="main" depart="393.4" departLane="random" departPos="base" departSpeed="speedLimit" />
  <vehicle id="CAV.127" type="CAV" route="main" depart="265.3" departLane="random" departPos="base" departSpeed="speedLimit" />
  <vehicle id="CAV.128" type="CAV" route="main" depart="243.5" departLane="random" departPos="base" departSpeed="speedLimit" />
  <vehicle id="CAV.129" type="CAV" route="main" depart="494.5" departLane="random" departPos="base" departSpeed="speedLimit" />
  <vehicle id="CAV.130" type="CAV" route="main" depart="226.9" departLane="random" departPos="base" departSpeed="speedLimit" />
  <vehicle id="CAV.131" type="CAV" route="main" depart="419.5" departLane="random" departPos="base" departSpeed="speedLimit" />
  <vehicle id="CAV.132" type="CAV" route="main" depart="283.8" departLane="random" departPos="base" departSpeed="speedLimit" />
  <vehicle id="CAV.133" type="CAV" route="main" depart="159.4" departLane="random" departPos="base" departSpeed="speedLimit" />
  <vehicle id="CAV.134" type="CAV" route="main" depart="211.5" departLane="random" departPos="base" departSpeed="speedLimit" />
  <vehicle id="CAV.135" type="CAV" route="main" depart="498.7" departLane="random" departPos="base" departSpeed="speedLimit" />
  <vehicle id="CAV.136" type="CAV" route="main" depart="113.7" departLane="random" departPos="base" departSpeed="speedLimit" />
  <vehicle id="CAV.137" type="CAV" route="main" depart="322.8" departLane="random" departPos="base" departSpeed="speedLimit" />
  <vehicle id="CAV.138" type="CAV" route="main" depart="240.0" departLane="random" departPos="base" departSpeed="speedLimit" />
  <vehicle id="CAV.139" type="CAV" route="main" depart="7.6" departLane="random" departPos="base" departSpeed="speedLimit" />
  <vehicle id="CAV.140" type="CAV" route="main" depart="10.5" departLane="random" departPos="base" departSpeed="speedLimit" />
  <vehicle id="CAV.141" type="CAV" route="main" depart="289.2" departLane="random" departPos="base" departSpeed="speedLimit" />
  <vehicle id="CAV.142" type="CAV" route="main" depart="168.6" departLane="random" departPos="base" departSpeed="speedLimit" />
  <vehicle id="CAV.143" type="CAV" route="main" depart="361.0" departLane="random" departPos="base" departSpeed="speedLimit" />
  <vehicle id="CAV.144" type="CAV" route="main" depart="547.9" departLane="random" departPos="base" departSpeed="speedLimit" />
  <vehicle id="CAV.145" type="CAV" route="main" depart="243.2" departLane="random" departPos="base" departSpeed="speedLimit" />
  <vehicle id="CAV.146" type="CAV" route="main" depart="233.9" departLane="random" departPos="base" departSpeed="speedLimit" />
  <vehicle id="CAV.147" type="CAV" route="main" depart="417.4" departLane="random" departPos="base" departSpeed="speedLimit" />
  <vehicle id="CAV.148" type="CAV" route="main" depart="33.3" departLane="random" departPos="base" departSpeed="speedLimit" />
  <vehicle id="CAV.149" type="CAV" route="main" depart="192.1" departLane="random" departPos="base" departSpeed="speedLimit" />
  <vehicle id="CAV.150" type="CAV" route="main" depart="295.2" departLane="random" departPos="base" departSpeed="speedLimit" />
  <vehicle id="CAV.151" type="CAV" route="main" depart="159.9" departLane="random" departPos="base" departSpeed="speedLimit" />
  <vehicle id="CAV.152" type="CAV" route="main" depart="230.7" departLane="random" departPos="base" departSpeed="speedLimit" />
  <vehicle id="CAV.153" type="CAV" route="main" depart="433.1" departLane="random" departPos="base" departSpeed="speedLimit" />
  <vehicle id="CAV.154" type="CAV" route="main" depart="18.7" departLane="random" departPos="base" departSpeed="speedLimit" />
  <vehicle id="CAV.155" type="CAV" route="main" depart="10.7" departLane="random" departPos="base" departSpeed="speedLimit" />
  <vehicle id="CAV.156" type="CAV" route="main" depart="204.3" departLane="random" departPos="base" departSpeed="speedLimit" />
  <vehicle id="CAV.157" type="CAV" route="main" depart="326.3" departLane="random" departPos="base" departSpeed="speedLimit" />
  <vehicle id="CAV.158" type="CAV" route="main" depart="198.6" departLane="random" departPos="base" departSpeed="speedLimit" />
  <vehicle id="CAV.159" type="CAV" route="main" depart="479.0" departLane="random" departPos="base" departSpeed="speedLimit" />
  <vehicle id="CAV.160" type="CAV" route="main" depart="580.3" departLane="random" departPos="base" departSpeed="speedLimit" />
  <vehicle id="CAV.161" type="CAV" route="main" depart="527.1" departLane="random" departPos="base" departSpeed="speedLimit" />
  <vehicle id="CAV.162" type="CAV" route="main" depart="556.9" departLane="random" departPos="base" departSpeed="speedLimit" />
  <vehicle id="CAV.163" type="CAV" route="main" depart="109.1" departLane="random" departPos="base" departSpeed="speedLimit" />
  <vehicle id="CAV.164" type="CAV" route="main" depart="183.6" departLane="random" departPos="base" departSpeed="speedLimit" />
  <vehicle id="CAV.165" type="CAV" route="main" depart="0.2" departLane="random" departPos="base" departSpeed="speedLimit" />
  <vehicle id="CAV.166" type="CAV" route="main" depart="151.3" departLane="random" departPos="base" departSpeed="speedLimit" />
  <vehicle id="CAV.167" type="CAV" route="main" depart="279.3" departLane="random" departPos="base" departSpeed="speedLimit" />
  <vehicle id="CAV.168" type="CAV" route="main" depart="452.2" departLane="random" departPos="base" departSpeed="speedLimit" />
  <vehicle id="CAV.169" type="CAV" route="main" depart="359.7" departLane="random" departPos="base" departSpeed="speedLimit" />
  <vehicle id="CAV.170" type="CAV" route="main" depart="239.3" departLane="random" departPos="base" departSpeed="speedLimit" />
  <vehicle id="CAV.171" type="CAV" route="main" depart="439.4" departLane="random" departPos="base" departSpeed="speedLimit" />
  <vehicle id="CAV.172" type="CAV" route="main" depart="375.4" departLane="random" departPos="base" departSpeed="speedLimit" />
  <vehicle id="CAV.173" type="CAV" route="main" depart="287.1" departLane="random" departPos="base" departSpeed="speedLimit" />
  <vehicle id="CAV.174" type="CAV" route="main" depart="54.0" departLane="random" departPos="base" departSpeed="speedLimit" />
  <vehicle id="CAV.175" type="CAV" route="main" depart="529.8" departLane="random" departPos="base" departSpeed="speedLimit" />
  <vehicle id="CAV.176" type="CAV" route="main" depart="498.1" departLane="random" departPos="base" departSpeed="speedLimit" />
  <vehicle id="CAV.177" type="CAV" route="main" depart="574.4" departLane="random" departPos="base" departSpeed="speedLimit" />
  <vehicle id="CAV.178" type="CAV" route="main" depart="286.1" departLane="random" departPos="base" departSpeed="speedLimit" />
  <vehicle id="CAV.179" type="CAV" route="main" depart="14.2" departLane="random" departPos="base" departSpeed="speedLimit" />
  <vehicle id="CAV.180" type="CAV" route="main" depart="245.8" departLane="random" departPos="base" departSpeed="speedLimit" />
  <vehicle id="CAV.181" type="CAV" route="main" depart="294.9" departLane="random" departPos="base" departSpeed="speedLimit" />
  <vehicle id="CAV.182" type="CAV" route="main" depart="571.1" departLane="random" departPos="base" departSpeed="speedLimit" />
  <vehicle id="CAV.183" type="CAV" route="main" depart="481.7" departLane="random" departPos="base" departSpeed="speedLimit" />
  <vehicle id="CAV.184" type="CAV" route="main" depart="54.0" departLane="random" departPos="base" departSpeed="speedLimit" />
  <vehicle id="CAV.185" type="CAV" route="main" depart="110.1" departLane="random" departPos="base" departSpeed="speedLimit" />
  <vehicle id="CAV.186" type="CAV" route="main" depart="285.9" departLane="random" departPos="base" departSpeed="speedLimit" />
  <vehicle id="CAV.187" type="CAV" route="main" depart="229.2" departLane="random" departPos="base" departSpeed="speedLimit" />
  <vehicle id="CAV.188" type="CAV" route="main" depart="512.6" departLane="random" departPos="base" departSpeed="speedLimit" />
  <vehicle id="CAV.189" type="CAV" route="main" depart="466.5" departLane="random" departPos="base" departSpeed="speedLimit" />
  <vehicle id="CAV.190" type="CAV" route="main" depart="582.2" departLane="random" departPos="base" departSpeed="speedLimit" />
  <vehicle id="CAV.191" type="CAV" route="main" depart="495.2" departLane="random" departPos="base" departSpeed="speedLimit" />
  <vehicle id="CAV.192" type="CAV" route="main" depart="535.7" departLane="random" departPos="base" departSpeed="speedLimit" />
  <vehicle id="CAV.193" type="CAV" route="main" depart="483.0" departLane="random" departPos="base" departSpeed="speedLimit" />
  <vehicle id="CAV.194" type="CAV" route="main" depart="242.0" departLane="random" departPos="base" departSpeed="speedLimit" />
  <vehicle id="CAV.195" type="CAV" route="main" depart="37.0" departLane="random" departPos="base" departSpeed="speedLimit" />
  <vehicle id="CAV.196" type="CAV" route="main" depart="62.2" departLane="random" departPos="base" departSpeed="speedLimit" />
  <vehicle id="CAV.197" type="CAV" route="main" depart="209.5" departLane="random" departPos="base" departSpeed="speedLimit" />
  <vehicle id="CAV.198" type="CAV" route="main" depart="478.2" departLane="random" departPos="base" departSpeed="speedLimit" />
  <vehicle id="CAV.199" type="CAV" route="main" depart="347.6" departLane="random" departPos="base" departSpeed="speedLimit" />
  <vehicle id="CAV.200" type="CAV" route="main" depart="586.9" departLane="random" departPos="base" departSpeed="speedLimit" />
  <vehicle id="CAV.201" type="CAV" route="main" depart="313.4" departLane="random" departPos="base" departSpeed="speedLimit" />
  <vehicle id="CAV.202" type="CAV" route="main" depart="338.6" departLane="random" departPos="base" departSpeed="speedLimit" />
  <vehicle id="CAV.203" type="CAV" route="main" depart="350.5" departLane="random" departPos="base" departSpeed="speedLimit" />
  <vehicle id="CAV.204" type="CAV" route="main" depart="420.2" departLane="random" departPos="base" departSpeed="speedLimit" />
  <vehicle id="CAV.205" type="CAV" route="main" depart="284.2" departLane="random" departPos="base" departSpeed="speedLimit" />
  <vehicle id="CAV.206" type="CAV" route="main" depart="27.5" departLane="random" departPos="base" departSpeed="speedLimit" />
  <vehicle id="CAV.207" type="CAV" route="main" depart="434.5" departLane="random" departPos="base" departSpeed="speedLimit" />
  <vehicle id="CAV.208" type="CAV" route="main" depart="82.1" departLane="random" departPos="base" departSpeed="speedLimit" />
  <vehicle id="CAV.209" type="CAV" route="main" depart="248.9" departLane="random" departPos="base" departSpeed="speedLimit" />
  <vehicle id="CAV.210" type="CAV" route="main" depart="549.2" departLane="random" departPos="base" departSpeed="speedLimit" />
  <vehicle id="CAV.211" type="CAV" route="main" depart="252.7" departLane="random" departPos="base" departSpeed="speedLimit" />
  <vehicle id="CAV.212" type="CAV" route="main" depart="548.2" departLane="random" departPos="base" departSpeed="speedLimit" />
  <vehicle id="CAV.213" type="CAV" route="main" depart="261.4" departLane="random" departPos="base" departSpeed="speedLimit" />
  <vehicle id="CAV.214" type="CAV" route="main" depart="145.0" departLane="random" departPos="base" departSpeed="speedLimit" />
  <vehicle id="CAV.215" type="CAV" route="main" depart="233.1" departLane="random" departPos="base" departSpeed="speedLimit" />
  <vehicle id="CAV.216" type="CAV" route="main" depart="45.5" departLane="random" departPos="base" departSpeed="speedLimit" />
  <vehicle id="CAV.217" type="CAV" route="main" depart="450.4" departLane="random" departPos="base" departSpeed="speedLimit" />
  <vehicle id="CAV.218" type="CAV" route="main" depart="315.7" departLane="random" departPos="base" departSpeed="speedLimit" />
  <vehicle id="CAV.219" type="CAV" route="main" depart="324.7" departLane="random" departPos="base" departSpeed="speedLimit" />
  <vehicle id="CAV.220" type="CAV" route="main" depart="253.6" departLane="random" departPos="base" departSpeed="speedLimit" />
  <vehicle id="CAV.221" type="CAV" route="main" depart="235.6" departLane="random" departPos="base" departSpeed="speedLimit" />
  <vehicle id="CAV.222" type="CAV" route="main" depart="524.3" departLane="random" departPos="base" departSpeed="speedLimit" />