<?xml version='1.0' encoding='utf-8'?>
<routes>
  <vType id="HDV_0" color="127,255,0" length="3.5" carFollowModel="Krauss" accel="2.6" decel="4.5" tau="1.0" minGap="2.0" lcStrategic="-1" sigma="0.5" speedFactor="normc(1,0.1,0.2,2)" />
  <vType id="HDV_1" color="255,0,255" length="3.5" carFollowModel="W99" accel="2.6" decel="4.5" tau="2.0" minGap="2.0" lcStrategic="0" cc1="1.5" speedFactor="normc(1,0.1,0.2,2)" />
  <vType id="HDV_2" color="30,144,255" length="7.0" carFollowModel="W99" accel="1.5" decel="3.5" tau="1.5" minGap="3.0" lcStrategic="-1" speedFactor="normc(1,0.1,0.2,2)" />
  <vType id="CAV" color="255,0,0" length="3.5" carFollowModel="IDM" accel="3.0" decel="5.5" tau="1.0" minGap="1.4" lcStrategic="0" />
  <route id="main" edges="E1 E4 E6" />
  <route id="ramp" edges="E2 E3 E4 E6" />
  <flow id="main_hdv_0_0" type="HDV_0" route="main" vehsPerHour="505" begin="0" end="600" departLane="random" departSpeed="speedLimit" departPos="base" />
  <flow id="ramp_hdv_0_0" type="HDV_0" route="ramp" vehsPerHour="303" begin="0" end="600" departLane="random" departSpeed="speedLimit" departPos="free" />
  <flow id="main_hdv_0_1" type="HDV_1" route="main" vehsPerHour="505" begin="0" end="600" departLane="random" departSpeed="speedLimit" departPos="base" />
  <flow id="ramp_hdv_0_1" type="HDV_1" route="ramp" vehsPerHour="303" begin="0" end="600" departLane="random" departSpeed="speedLimit" departPos="free" />
  <flow id="main_hdv_0_2" type="HDV_2" route="main" vehsPerHour="252" begin="0" end="600" departLane="random" departSpeed="speedLimit" departPos="base" />
  <flow id="ramp_hdv_0_2" type="HDV_2" route="ramp" vehsPerHour="151" begin="0" end="600" departLane="random" departSpeed="speedLimit" departPos="free" />
  <vehicle id="CAV.1" type="CAV" route="main" depart="49.5" departLane="random" departPos="base" departSpeed="speedLimit" />
  <vehicle id="CAV.2" type="CAV" route="main" depart="82.4" departLane="random" departPos="base" departSpeed="speedLimit" />
  <vehicle id="CAV.3" type="CAV" route="main" depart="78.1" departLane="random" departPos="base" departSpeed="speedLimit" />
  <vehicle id="CAV.4" type="CAV" route="main" depart="82.5" departLane="random" departPos="base" departSpeed="speedLimit" />
  <vehicle id="CAV.5" type="CAV" route="main" depart="244.2" departLane="random" departPos="base" departSpeed="speedLimit" />
  <vehicle id="CAV.6" type="CAV" route="main" depart="154.6" departLane="random" departPos="base" departSpeed="speedLimit" />
  <vehicle id="CAV.7" type="CAV" route="main" depart="494.2" departLane="random" departPos="base" departSpeed="speedLimit" />
  <vehicle id="CAV.8" type="CAV" route="main" depart="529.4" departLane="random" departPos="base" departSpeed="speedLimit" />
  <vehicle id="CAV.9" type="CAV" route="main" depart="135.7" departLane="random" departPos="base" departSpeed="speedLimit" />
  <vehicle id="CAV.10" type="CAV" route="main" depart="536.1" departLane="random" departPos="base" departSpeed="speedLimit" />
  <vehicle id="CAV.11" type="CAV" route="main" depart="81.7" departLane="random" departPos="base" departSpeed="speedLimit" />
  <vehicle id="CAV.12" type="CAV" route="main" depart="548.1" departLane="random" departPos="base" departSpeed="speedLimit" />
  <vehicle id="CAV.13" type="CAV" route="main" depart="273.5" departLane="random" departPos="base" departSpeed="speedLimit" />
  <vehicle id="CAV.14" type="CAV" route="main" depart="3.4" departLane="random" departPos="base" departSpeed="speedLimit" />
  <vehicle id="CAV.15" type="CAV" route="main" depart="513.1" departLane="random" departPos="base" departSpeed="speedLimit" />
  <vehicle id="CAV.16" type="CAV" route="main" depart="11.1" departLane="random" departPos="base" departSpeed="speedLimit" />
  <vehicle id="CAV.17" type="CAV" route="main" depart="51.1" departLane="random" departPos="base" departSpeed="speedLimit" />
  <vehicle id="CAV.18" type="CAV" route="main" depart="206.6" departLane="random" departPos="base" departSpeed="speedLimit" />
  <vehicle id="CAV.19" type="CAV" route="main" depart="127.2" departLane="random" departPos="base" departSpeed="speedLimit" />
  <vehicle id="CAV.20" type="CAV" route="main" depart="459.5" departLane="random" departPos="base" departSpeed="speedLimit" />
  <vehicle id="CAV.21" type="CAV" route="main" depart="107.7" departLane="random" departPos="base" departSpeed="speedLimit" />
  <vehicle id="CAV.22" type="CAV" route="main" depart="164.1" departLane="random" departPos="base" departSpeed="speedLimit" />
  <vehicle id="CAV.23" type="CAV" route="main" depart="176.4" departLane="random" departPos="base" departSpeed="speedLimit" />
  <vehicle id="CAV.24" type="CAV" route="main" depart="536.4" departLane="random" departPos="base" departSpeed="speedLimit" />
  <vehicle id="CAV.25" type="CAV" route="main" depart="456.3" departLane="random" departPos="base" departSpeed="speedLimit" />
  <vehicle id="CAV.26" type="CAV" route="main" depart="22.1" departLane="random" departPos="base" departSpeed="speedLimit" />
  <vehicle id="CAV.27" type="CAV" route="main" depart="29.6" departLane="random" departPos="base" departSpeed="speedLimit" />
  <vehicle id="CAV.28" type="CAV" route="main" depart="390.0" departLane="random" departPos="base" departSpeed="speedLimit" />
  <vehicle id="CAV.29" type="CAV" route="main" depart="140.5" departLane="random" departPos="base" departSpeed="speedLimit" />
  <vehicle id="CAV.30" type="CAV" route="main" depart="268.9" departLane="random" departPos="base" departSpeed="speedLimit" />
  <vehicle id="CAV.31" type="CAV" route="main" depart="456.9" departLane="random" departPos="base" departSpeed="speedLimit" />
  <vehicle id="CAV.32" type="CAV" route="main" depart="255.1" departLane="random" departPos="base" departSpeed="speedLimit" />
  <vehicle id="CAV.33" type="CAV" route="main" depart="178.8" departLane="random" departPos="base" departSpeed="speedLimit" />
  <vehicle id="CAV.34" type="CAV" route="main" depart="298.5" departLane="random" departPos="base" departSpeed="speedLimit" />
  <vehicle id="CAV.35" type="CAV" route="main" depart="43.6" departLane="random" departPos="base" departSpeed="speedLimit" />
  <vehicle id="CAV.36" type="CAV" route="main" depart="414.9" departLane="random" departPos="base" departSpeed="speedLimit" />
  <vehicle id="CAV.37" type="CAV" route="main" depart="348.0" departLane="random" departPos="base" departSpeed="speedLimit" />
  <vehicle id="CAV.38" type="CAV" route="main" depart="314.6" departLane="random" departPos="base" departSpeed="speedLimit" />
  <vehicle id="CAV.39" type="CAV" route="main" depart="67.9" departLane="random" departPos="base" departSpeed="speedLimit" />
  <vehicle id="CAV.40" type="CAV" route="main" depart="268.1" departLane="random" departPos="base" departSpeed="speedLimit" />
  <vehicle id="CAV.41" type="CAV" route="main" depart="50.1" departLane="random" departPos="base" departSpeed="speedLimit" />
  <vehicle id="CAV.42" type="CAV" route="main" depart="582.7" departLane="random" departPos="base" departSpeed="speedLimit" />
  <vehicle id="CAV.43" type="CAV" route="main" depart="141.6" departLane="random" departPos="base" departSpeed="speedLimit" />
  <vehicle id="CAV.44" type="CAV" route="main" depart="155.3" departLane="random" departPos="base" departSpeed="speedLimit" />
  <vehicle id="CAV.45" type="CAV" route="main" depart="127.8" departLane="random" departPos="base" departSpeed="speedLimit" />
  <vehicle id="CAV.46" type="CAV" route="main" depart="107.6" departLane="random" departPos="base" departSpeed="speedLimit" />
  <vehicle id="CAV.47" type="CAV" route="main" depart="481.6" departLane="random" departPos="base" departSpeed="speedLimit" />
  <vehicle id="CAV.48" type="CAV" route="main" depart="249.7" departLane="random" departPos="base" departSpeed="speedLimit" />
  <vehicle id="CAV.49" type="CAV" route="main" depart="64.1" departLane="random" departPos="base" departSpeed="speedLimit" />
  <vehicle id="CAV.50" type="CAV" route="main" depart="153.6" departLane="random" departPos="base" departSpeed="speedLimit" />
  <vehicle id="CAV.51" type="CAV" route="main" depart="188.1" departLane="random" departPos="base" departSpeed="speedLimit" />
  <vehicle id="CAV.52" type="CAV" route="main" depart="313.4" departLane="random" departPos="base" departSpeed="speedLimit" />
  <vehicle id="CAV.53" type="CAV" route="main" depart="378.2" departLane="random" departPos="base" departSpeed="speedLimit" />
  <vehicle id="CAV.54" type="CAV" route="main" depart="413.3" departLane="random" departPos="base" departSpeed="speedLimit" />
  <vehicle id="CAV.55" type="CAV" route="main" depart="563.4" departLane="random" departPos="base" departSpeed="speedLimit" />
  <vehicle id="CAV.56" type="CAV" route="main" depart="314.6" departLane="random" departPos="base" departSpeed="speedLimit" />
  <vehicle id="CAV.57" type="CAV" route="main" depart="413.4" departLane="random" departPos="base" departSpeed="speedLimit" />
  <vehicle id="CAV.58" type="CAV" route="main" depart="270.1" departLane="random" departPos="base" departSpeed="speedLimit" />
  <vehicle id="CAV.59" type="CAV" route="main" depart="513.4" departLane="random" departPos="base" departSpeed="speedLimit" />
  <vehicle id="CAV.60" type="CAV" route="main" depart="255.8" departLane="random" departPos="base" departSpeed="speedLimit" />
  <vehicle id="CAV.61" type="CAV" route="main" depart="119.6" departLane="random" departPos="base" departSpeed="speedLimit" />
  <vehicle id="CAV.62" type="CAV" route="main" depart="594.6" departLane="random" departPos="base" departSpeed="speedLimit" />
  <vehicle id="CAV.63" type="CAV" route="main" depart="88.4" departLane="random" departPos="base" departSpeed="speedLimit" />
  <vehicle id="CAV.64" type="CAV" route="main" depart="126.6" departLane="random" departPos="base" departSpeed="speedLimit" />
  <vehicle id="CAV.65" type="CAV" route="main" depart="291.4" departLane="random" departPos="base" departSpeed="speedLimit" />
  <vehicle id="CAV.66" type="CAV" route="main" depart="585.8" departLane="random" departPos="base" departSpeed="speedLimit" />
  <vehicle id="CAV.67" type="CAV" route="main" depart="458.2" departLane="random" departPos="base" departSpeed="speedLimit" />
  <vehicle id="CAV.68" type="CAV" route="main" depart="298.4" departLane="random" departPos="base" departSpeed="speedLimit" />
  <vehicle id="CAV.69" type="CAV" route="main" depart="427.3" departLane="random" departPos="base" departSpeed="speedLimit" />
  <vehicle id="CAV.70" type="CAV" route="main" depart="504.5" departLane="random" departPos="base" departSpeed="speedLimit" />
  <vehicle id="CAV.71" type="CAV" route="main" depart="495.6" departLane="random" departPos="base" departSpeed="speedLimit" />
  <vehicle id="CAV.72" type="CAV" route="main" depart="107.4" departLane="random" departPos="base" departSpeed="speedLimit" />
  <vehicle id="CAV.73" type="CAV" route="main" depart="163.5" departLane="random" departPos="base" departSpeed="speedLimit" />
  <vehicle id="CAV.74" type="CAV" route="main" depart="172.8" departLane="random" departPos="base" departSpeed="speedLimit" />
  <vehicle id="CAV.75" type="CAV" route="main" depart="380.3" departLane="random" departPos="base" departSpeed="speedLimit" />
  <vehicle id="CAV.76" type="CAV" route="main" depart="361.9" departLane="random" departPos="base" departSpeed="speedLimit" />
  <vehicle id="CAV.77" type="CAV" route="main" depart="401.8" departLane="random" departPos="base" departSpeed="speedLimit" />
  <vehicle id="CAV.78" type="CAV" route="main" depart="539.0" departLane="random" departPos="base" departSpeed="speedLimit" />
  <vehicle id="CAV.79" type="CAV" route="main" depart="10.4" departLane="random" departPos="base" departSpeed="speedLimit" />
  <vehicle id="CAV.80" type="CAV" route="main" depart="154.0" departLane="random" departPos="base" departSpeed="speedLimit" />
  <vehicle id="CAV.81" type="CAV" route="main" depart="157.4" departLane="random" departPos="base" departSpeed="speedLimit" />
  <vehicle id="CAV.82" type="CAV" route="main" depart="504.6" departLane="random" departPos="base" departSpeed="speedLimit" />
  <vehicle id="CAV.83" type="CAV" route="main" depart="597.9" departLane="random" departPos="base" departSpeed="speedLimit" />
  <vehicle id="CAV.84" type="CAV" route="main" depart="81.1" departLane="random" departPos="base" departSpeed="speedLimit" />
  <vehicle id="CAV.85" type="CAV" route="main" depart="175.2" departLane="random" departPos="base" departSpeed="speedLimit" />
  <vehicle id="CAV.86" type="CAV" route="main" depart="538.8" departLane="random" departPos="base" departSpeed="speedLimit" />
  <vehicle id="CAV.87" type="CAV" route="main" depart="423.6" departLane="random" departPos="base" departSpeed="speedLimit" />
  <vehicle id="CAV.88" type="CAV" route="main" depart="556.0" departLane="random" departPos="base" departSpeed="speedLimit" />
  <vehicle id="CAV.89" type="CAV" route="main" depart="57.8" departLane="random" departPos="base" departSpeed="speedLimit" />
  <vehicle id="CAV.90" type="CAV" route="main" depart="368.8" departLane="random" departPos="base" departSpeed="speedLimit" />
  <vehicle id="CAV.91" type="CAV" route="main" depart="214.8" departLane="random" departPos="base" departSpeed="speedLimit" />
  <vehicle id="CAV.92" type="CAV" route="main" depart="595.7" departLane="random" departPos="base" departSpeed="speedLimit" />
  <vehicle id="CAV.93" type="CAV" route="main" depart="546.3" departLane="random" departPos="base" departSpeed="speedLimit" />
  <vehicle id="CAV.94" type="CAV" route="main" depart="175.7" departLane="random" departPos="base" departSpeed="speedLimit" />
  <vehicle id="CAV.95" type="CAV" route="main" depart="494.7" departLane="random" departPos="base" departSpeed="speedLimit" />
  <vehicle id="CAV.96" type="CAV" route="main" depart="388.6" departLane="random" departPos="base" departSpeed="speedLimit" />
  <vehicle id="CAV.97" type="CAV" route="main" depart="138.4" departLane="random" departPos="base" departSpeed="speedLimit" />
  <vehicle id="CAV.98" type="CAV" route="main" depart="201.9" departLane="random" departPos="base" departSpeed="speedLimit" />
  <vehicle id="CAV.99" type="CAV" route="main" depart="50.5" departLane="random" departPos="base" departSpeed="speedLimit" />
  <vehicle id="CAV.100" type="CAV" route="main" depart="433.6" departLane="random" departPos="base" departSpeed="speedLimit" />
  <vehicle id="CAV.101" type="CAV" route="main" depart="307.7" departLane="random" departPos="base" departSpeed="speedLimit" />
  <vehicle id="CAV.102" type="CAV" route="main" depart="274.9" departLane="random" departPos="base" departSpeed="speedLimit" />
  <vehicle id="CAV.103" type="CAV" route="main" depart="59.4" departLane="random" departPos="base" departSpeed="speedLimit" />
  <vehicle id="CAV.104" type="CAV" route="main" depart="48.4" departLane="random" departPos="base" departSpeed="speedLimit" />
  <vehicle id="CAV.105" type="CAV" route="main" depart="356.1" departLane="random" departPos="base" departSpeed="speedLimit" />
  <vehicle id="CAV.106" type="CAV" route="main" depart="476.2" departLane="random" departPos="base" departSpeed="speedLimit" />
  <vehicle id="CAV.107" type="CAV" route="main" depart="298.0" departLane="random" departPos="base" departSpeed="speedLimit" />
  <vehicle id="CAV.108" type="CAV" route="main" depart="49.3" departLane="random" departPos="base" departSpeed="speedLimit" />
  <vehicle id="CAV.109" type="CAV" route="main" depart="432.7" departLane="random" departPos="base" departSpeed="speedLimit" />
  <vehicle id="CAV.110" type="CAV" route="main" depart="555.6" departLane="random" departPos="base" departSpeed="speedLimit" />
  <vehicle id="CAV.111" type="CAV" route="main" depart="561.8" departLane="random" departPos="base" departSpeed="speedLimit" />
  <vehicle id="CAV.112" type="CAV" route="main" depart="564.9" departLane="random" departPos="base" departSpeed="speedLimit" />
  <vehicle id="CAV.113" type="CAV" route="main" depart="137.8" departLane="random" departPos="base" departSpeed="speedLimit" />
  <vehicle id="CAV.114" type="CAV" route="main" depart="418.8" departLane="random" departPos="base" departSpeed="speedLimit" />
  <vehicle id="CAV.115" type="CAV" route="main" depart="198.0" departLane="random" departPos="base" departSpeed="speedLimit" />
  <vehicle id="CAV.116" type="CAV" route="main" depart="253.0" departLane="random" departPos="base" departSpeed="speedLimit" />
  <vehicle id="CAV.117" type="CAV" route="main" depart="511.4" departLane="random" departPos="base" departSpeed="speedLimit" />
  <vehicle id="CAV.118" type="CAV" route="main" depart="1.1" departLane="random" departPos="base" departSpeed="speedLimit" />
  <vehicle id="CAV.119" type="CAV" route="main" depart="207.2" departLane="random" departPos="base" departSpeed="speedLimit" />
  <vehicle id="CAV.120" type="CAV" route="main" depart="170.9" departLane="random" departPos="base" departSpeed="speedLimit" />
  <vehicle id="CAV.121" type="CAV" route="main" depart="217.9" departLane="random" departPos="base" departSpeed="speedLimit" />
  <vehicle id="CAV.122" type="CAV" route="main" depart="364.8" departLane="random" departPos="base" departSpeed="speedLimit" />
  <vehicle id="CAV.123" type="CAV" route="main" depart="185.8" departLane="random" departPos="base" departSpeed="speedLimit" />
  <vehicle id="CAV.124" type="CAV" route="main" depart="74.1" departLane="random" departPos="base" departSpeed="speedLimit" />
  <vehicle id="CAV.125" type="CAV" route="main" depart="183.4" departLane="random" departPos="base" departSpeed="speedLimit" />
  <vehicle id="CAV.126" type="CAV" route="main" depart="317.4" departLane="random" departPos="base" departSpeed="speedLimit" />
  <vehicle id="CAV.127" type="CAV" route="main" depart="582.8" departLane="random" departPos="base" departSpeed="speedLimit" />
  <vehicle id="CAV.128" type="CAV" route="main" depart="403.0" departLane="random" departPos="base" departSpeed="speedLimit" />
  <vehicle id="CAV.129" type="CAV" route="main" depart="155.5" departLane="random" departPos="base" departSpeed="speedLimit" />
  <vehicle id="CAV.130" type="CAV" route="main" depart="206.9" departLane="random" departPos="base" departSpeed="speedLimit" />
  <vehicle id="CAV.131" type="CAV" route="main" depart="367.1" departLane="random" departPos="base" departSpeed="speedLimit" />
  <vehicle id="CAV.132" type="CAV" route="main" depart="592.8" departLane="random" departPos="base" departSpeed="speedLimit" />
  <vehicle id="CAV.133" type="CAV" route="main" depart="288.3" departLane="random" departPos="base" departSpeed="speedLimit" />
  <vehicle id="CAV.134" type="CAV" route="main" depart="409.2" departLane="random" departPos="base" departSpeed="speedLimit" />
  <vehicle id="CAV.135" type="CAV" route="main" depart="477.0" departLane="random" departPos="base" departSpeed="speedLimit" />
  <vehicle id="CAV.136" type="CAV" route="main" depart="505.7" departLane="random" departPos="base" departSpeed="speedLimit" />
  <vehicle id="CAV.137" type="CAV" route="main" depart="309.4" departLane="random" departPos="base" departSpeed="speedLimit" />
  <vehicle id="CAV.138" type="CAV" route="main" depart="5.1" departLane="random" departPos="base" departSpeed="speedLimit" />
  <vehicle id="CAV.139" type="CAV" route="main" depart="476.6" departLane="random" departPos="base" departSpeed="speedLimit" />
  <vehicle id="CAV.140" type="CAV" route="main" depart="424.2" departLane="random" departPos="base" departSpeed="speedLimit" />
  <vehicle id="CAV.141" type="CAV" route="main" depart="123.2" departLane="random" departPos="base" departSpeed="speedLimit" />
  <vehicle id="CAV.142" type="CAV" route="main" depart="332.8" departLane="random" departPos="base" departSpeed="speedLimit" />
  <vehicle id="CAV.143" type="CAV" route="main" depart="461.9" departLane="random" departPos="base" departSpeed="speedLimit" />
  <vehicle id="CAV.144" type="CAV" route="main" depart="586.0" departLane="random" departPos="base" departSpeed="speedLimit" />
  <vehicle id="CAV.145" type="CAV" route="main" depart="564.8" departLane="random" departPos="base" departSpeed="speedLimit" />
  <vehicle id="CAV.146" type="CAV" route="main" depart="437.8" departLane="random" departPos="base" departSpeed="speedLimit" />
  <vehicle id="CAV.147" type="CAV" route="main" depart="138.5" departLane="random" departPos="base" departSpeed="speedLimit" />
  <vehicle id="CAV.148" type="CAV" route="main" depart="42.1" departLane="random" departPos="base" departSpeed="speedLimit" />
  <vehicle id="CAV.149" type="CAV" route="main" depart="444.5" departLane="random" departPos="base" departSpeed="speedLimit" />
  <vehicle id="CAV.150" type="CAV" route="main" depart="538.0" departLane="random" departPos="base" departSpeed="speedLimit" />
  <vehicle id="CAV.151" type="CAV" route="main" depart="350.7" departLane="random" departPos="base" departSpeed="speedLimit" />
  <vehicle id="CAV.152" type="CAV" route="main" depart="80.6" departLane="random" departPos="base" departSpeed="speedLimit" />
  <vehicle id="CAV.153" type="CAV" route="main" depart="589.3" departLane="random" departPos="base" departSpeed="speedLimit" />
  <vehicle id="CAV.154" type="CAV" route="main" depart="577.4" departLane="random" departPos="base" departSpeed="speedLimit" />
  <vehicle id="CAV.155" type="CAV" route="main" depart="396.7" departLane="random" departPos="base" departSpeed="speedLimit" />
  <vehicle id="CAV.156" type="CAV" route="main" depart="297.7" departLane="random" departPos="base" departSpeed="speedLimit" />
  <vehicle id="CAV.157" type="CAV" route="main" depart="566.2" departLane="random" departPos="base" departSpeed="speedLimit" />
  <vehicle id="CAV.158" type="CAV" route="main" depart="132.2" departLane="random" departPos="base" departSpeed="speedLimit" />
  <vehicle id="CAV.159" type="CAV" route="main" depart="548.4" departLane="random" departPos="base" departSpeed="speedLimit" />
  <vehicle id="CAV.160" type="CAV" route="main" depart="6.7" departLane="random" departPos="base" departSpeed="speedLimit" />
  <vehicle id="CAV.161" type="CAV" route="main" depart="125.6" departLane="random" departPos="base" departSpeed="speedLimit" />
  <vehicle id="CAV.162" type="CAV" route="main" depart="136.8" departLane="random" departPos="base" departSpeed="speedLimit" />
  <vehicle id="CAV.163" type="CAV" route="main" depart="307.7" departLane="random" departPos="base" departSpeed="speedLimit" />
  <vehicle id="CAV.164" type="CAV" route="main" depart="265.4" departLane="random" departPos="base" departSpeed="speedLimit" />
  <vehicle id="CAV.165" type="CAV" route="main" depart="97.8" departLane="random" departPos="base" departSpeed="speedLimit" />
  <vehicle id="CAV.166" type="CAV" route="main" depart="581.1" departLane="random" departPos="base" departSpeed="speedLimit" />
  <vehicle id="CAV.167" type="CAV" route="main" depart="599.0" departLane="random" departPos="base" departSpeed="speedLimit" />
  <vehicle id="CAV.168" type="CAV" route="main" depart="12.6" departLane="random" departPos="base" departSpeed="speedLimit" />
  <vehicle id="CAV.169" type="CAV" route="main" depart="111.5" departLane="random" departPos="base" departSpeed="speedLimit" />
  <vehicle id="CAV.170" type="CAV" route="main" depart="128.2" departLane="random" departPos="base" departSpeed="speedLimit" />
  <vehicle id="CAV.171" type="CAV" route="main" depart="132.2" departLane="random" departPos="base" departSpeed="speedLimit" />
  <vehicle id="CAV.172" type="CAV" route="main" depart="355.4" departLane="random" departPos="base" departSpeed="speedLimit" />
  <vehicle id="CAV.173" type="CAV" route="main" depart="256.4" departLane="random" departPos="base" departSpeed="speedLimit" />
  <vehicle id="CAV.174" type="CAV" route="main" depart="367.4" departLane="random" departPos="base" departSpeed="speedLimit" />
  <vehicle id="CAV.175" type="CAV" route="main" depart="215.0" departLane="random" departPos="base" departSpeed="speedLimit" />
  <vehicle id="CAV.176" type="CAV" route="main" depart="208.3" departLane="random" departPos="base" departSpeed="speedLimit" />
  <vehicle id="CAV.177" type="CAV" route="main" depart="578.4" departLane="random" departPos="base" departSpeed="speedLimit" />
  <vehicle id="CAV.178" type="CAV" route="main" depart="33.4" departLane="random" departPos="base" departSpeed="speedLimit" />
  <vehicle id="CAV.179" type="CAV" route="main" depart="149.2" departLane="random" departPos="base" departSpeed="speedLimit" />
  <vehicle id="CAV.180" type="CAV" route="main" depart="459.5" departLane="random" departPos="base" departSpeed="speedLimit" />
  <vehicle id="CAV.181" type="CAV" route="main" depart="409.2" departLane="random" departPos="base" departSpeed="speedLimit" />
  <vehicle id="CAV.182" type="CAV" route="main" depart="454.0" departLane="random" departPos="base" departSpeed="speedLimit" />
  <vehicle id="CAV.183" type="CAV" route="main" depart="437.1" departLane="random" departPos="base" departSpeed="speedLimit" />
  <vehicle id="CAV.184" type="CAV" route="main" depart="183.1" departLane="random" departPos="base" departSpeed="speedLimit" />
  <vehicle id="CAV.185" type="CAV" route="main" depart="591.5" departLane="random" departPos="base" departSpeed="speedLimit" />
  <vehicle id="CAV.186" type="CAV" route="main" depart="438.9" departLane="random" departPos="base" departSpeed="speedLimit" />
  <vehicle id="CAV.187" type="CAV" route="main" depart="395.5" departLane="random" departPos="base" departSpeed="speedLimit" />
  <vehicle id="CAV.188" type="CAV" route="main" depart="327.7" departLane="random" departPos="base" departSpeed="speedLimit" />
  <vehicle id="CAV.189" type="CAV" route="main" depart="303.6" departLane="random" departPos="base" departSpeed="speedLimit" />
  <vehicle id="CAV.190" type="CAV" route="main" depart="452.7" departLane="random" departPos="base" departSpeed="speedLimit" />
  <vehicle id="CAV.191" type="CAV" route="main" depart="225.7" departLane="random" departPos="base" departSpeed="speedLimit" />
  <vehicle id="CAV.192" type="CAV" route="main" depart="201.3" departLane="random" departPos="base" departSpeed="speedLimit" />
  <vehicle id="CAV.193" type="CAV" route="main" depart="294.7" departLane="random" departPos="base" departSpeed="speedLimit" />
  <vehicle id="CAV.194" type="CAV" route="main" depart="564.0" departLane="random" departPos="base" departSpeed="speedLimit" />
  <vehicle id="CAV.195" type="CAV" route="main" depart="440.9" departLane="random" departPos="base" departSpeed="speedLimit" />
  <vehicle id="CAV.196" type="CAV" route="main" depart="554.7" departLane="random" departPos="base" departSpeed="speedLimit" />
  <vehicle id="CAV.197" type="CAV" route="main" depart="515.3" departLane="random" departPos="base" departSpeed="speedLimit" />
  <vehicle id="CAV.198" type="CAV" route="main" depart="393.0" departLane="random" departPos="base" departSpeed="speedLimit" />
  <vehicle id="CAV.199" type="CAV" route="main" depart="79.6" departLane="random" departPos="base" departSpeed="speedLimit" />
  <vehicle id="CAV.200" type="CAV" route="main" depart="4.7" departLane="random" departPos="base" departSpeed="speedLimit" />
  <vehicle id="CAV.201" type="CAV" route="main" depart="155.4" departLane="random" departPos="base" departSpeed="speedLimit" />
  <vehicle id="CAV.202" type="CAV" route="main" depart="473.5" departLane="random" departPos="base" departSpeed="speedLimit" />
  <vehicle id="CAV.203" type="CAV" route="main" depart="343.6" departLane="random" departPos="base" departSpeed="speedLimit" />
  <vehicle id="CAV.204" type="CAV" route="main" depart="191.8" departLane="random" departPos="base" departSpeed="speedLimit" />
  <vehicle id="CAV.205" type="CAV" route="main" depart="29.9" departLane="random" departPos="base" departSpeed="speedLimit" />
  <vehicle id="CAV.206" type="CAV" route="main" depart="232.1" departLane="random" departPos="base" departSpeed="speedLimit" />
  <vehicle id="CAV.207" type="CAV" route="main" depart="517.2" departLane="random" departPos="base" departSpeed="speedLimit" />
  <vehicle id="CAV.208" type="CAV" route="main" depart="505.7" departLane="random" departPos="base" departSpeed="speedLimit" />
  <vehicle id="CAV.209" type="CAV" route="main" depart="309.2" departLane="random" departPos="base" departSpeed="speedLimit" />
  <vehicle id="CAV.210" type="CAV" route="main" depart="553.2" departLane="random" departPos="base" departSpeed="speedLimit" />
  <vehicle id="CAV.211" type="CAV" route="main" depart="500.1" departLane="random" departPos="base" departSpeed="speedLimit" />
  <vehicle id="CAV.212" type="CAV" route="main" depart="321.2" departLane="random" departPos="base" departSpeed="speedLimit" />
  <vehicle id="CAV.213" type="CAV" route="main" depart="116.3" departLane="random" departPos="base" departSpeed="speedLimit" />
  <vehicle id="CAV.214" type="CAV" route="main" depart="587.5" departLane="random" departPos="base" departSpeed="speedLimit" />
  <vehicle id="CAV.215" type="CAV" route="main" depart="219.2" departLane="random" departPos="base" departSpeed="speedLimit" />
  <vehicle id="CAV.216" type="CAV" route="main" depart="524.0" departLane="random" departPos="base" departSpeed="speedLimit" />
  <vehicle id="CAV.217" type="CAV" route="main" depart="299.8" departLane="random" departPos="base" departSpeed="speedLimit" />
  <vehicle id="CAV.218" type="CAV" route="main" depart="107.9" departLane="random" departPos="base" departSpeed="speedLimit" />
  <vehicle id="CAV.219" type="CAV" route="main" depart="357.0" departLane="random" departPos="base" departSpeed="speedLimit" />
  <vehicle id="CAV.220" type="CAV" route="main" depart="581.3" departLane="random" departPos="base" departSpeed="speedLimit" />
  <vehicle id="CAV.221" type="CAV" route="main" depart="217.1" departLane="random" departPos="base" departSpeed="speedLimit" />