<?xml version='1.0' encoding='utf-8'?>
<additional>
  <laneAreaDetector id="e2_extrapolation_1_upstream_0" lane="E1_0" pos="6900.0" endPos="7400.0" freq="30" file="data/sumo/detectors/extrapolation_1_upstream_0.xml" />
  <laneAreaDetector id="e2_extrapolation_1_upstream_1" lane="E1_1" pos="6900.0" endPos="7400.0" freq="30" file="data/sumo/detectors/extrapolation_1_upstream_1.xml" />
  <laneAreaDetector id="e2_extrapolation_1_upstream_2" lane="E1_2" pos="6900.0" endPos="7400.0" freq="30" file="data/sumo/detectors/extrapolation_1_upstream_2.xml" />
  <laneAreaDetector id="e2_extrapolation_1_merge_0" lane="E4_0" pos="0.0" endPos="150.0" freq="30" file="data/sumo/detectors/extrapolation_1_merge_0.xml" />
  <laneAreaDetector id="e2_extrapolation_1_merge_1" lane="E4_1" pos="0.0" endPos="150.0" freq="30" file="data/sumo/detectors/extrapolation_1_merge_1.xml" />
  <laneAreaDetector id="e2_extrapolation_1_merge_2" lane="E4_2" pos="0.0" endPos="150.0" freq="30" file="data/sumo/detectors/extrapolation_1_merge_2.xml" />
  <laneAreaDetector id="e2_extrapolation_1_downstream_0" lane="E6_0" pos="50.0" endPos="600.0" freq="30" file="data/sumo/detectors/extrapolation_1_downstream_0.xml" />
  <laneAreaDetector id="e2_extrapolation_1_downstream_1" lane="E6_1" pos="50.0" endPos="600.0" freq="30" file="data/sumo/detectors/extrapolation_1_downstream_1.xml" />
  <laneAreaDetector id="e2_extrapolation_1_downstream_2" lane="E6_2" pos="50.0" endPos="600.0" freq="30" file="data/sumo/detectors/extrapolation_1_downstream_2.xml" />
  <laneAreaDetector id="e2_extrapolation_1_ramp_0" lane="E3_0" pos="0.0" endPos="175.0" freq="30" file="data/sumo/detectors/extrapolation_1_ramp_0.xml" />
</additional>